!- NOTE: Auto-generated from /test/osw_files/SFA_10units_2story_SL_3Beds_1pt5Baths_Denver_Furnace_CentralAC.osw

OS:Version,
  {2d3288c5-3e93-4f85-81a2-1534e99dee40}, !- Handle
  2.5.1;                                  !- Version Identifier

OS:Building,
  {fe2665aa-e594-4265-8001-d5d7ba9adb0f}, !- Handle
  Building 1,                             !- Name
  ,                                       !- Building Sector Type
  270,                                    !- North Axis {deg}
  ,                                       !- Nominal Floor to Floor Height {m}
  ,                                       !- Space Type Name
  ,                                       !- Default Construction Set Name
  ,                                       !- Default Schedule Set Name
  2,                                      !- Standards Number of Stories
  2,                                      !- Standards Number of Above Ground Stories
  singlefamilyattached,                   !- Standards Building Type
  10;                                     !- Standards Number of Living Units

OS:Facility,
  {e1cd0a73-67e1-487f-9770-a3953d66bc41}; !- Handle

OS:Site,
  {e39682d6-8da6-4859-bdcd-7aff8567fe96}, !- Handle
  Denver Intl Ap_CO_USA,                  !- Name
  39.83,                                  !- Latitude {deg}
  -104.65,                                !- Longitude {deg}
  -7,                                     !- Time Zone {hr}
  1650,                                   !- Elevation {m}
  Suburbs;                                !- Terrain

OS:SimulationControl,
  {160b13ae-e230-44f1-974a-7d39d4adb68a}, !- Handle
  ,                                       !- Do Zone Sizing Calculation
  ,                                       !- Do System Sizing Calculation
  ,                                       !- Do Plant Sizing Calculation
  No;                                     !- Run Simulation for Sizing Periods

OS:Sizing:Parameters,
  {86f913c8-66e4-43ca-bd18-9a43f962c2e4}, !- Handle
  1.25,                                   !- Heating Sizing Factor
  1.15;                                   !- Cooling Sizing Factor

OS:Timestep,
  {c1295033-8690-4bd3-8b7b-f374287dab6b}, !- Handle
  6;                                      !- Number of Timesteps per Hour

OS:ShadowCalculation,
  {95db7450-840d-4d45-b927-c21815b10292}, !- Handle
  20,                                     !- Calculation Frequency
  200;                                    !- Maximum Figures in Shadow Overlap Calculations

OS:HeatBalanceAlgorithm,
  {48d8bed9-2037-4028-a78c-5f011e50994b}, !- Handle
  ConductionTransferFunction,             !- Algorithm
  200;                                    !- Surface Temperature Upper Limit {C}

OS:RunPeriod,
  {0934a37d-7c1b-4a91-8497-9a56ee9ac243}, !- Handle
  Run Period 1,                           !- Name
  1,                                      !- Begin Month
  1,                                      !- Begin Day of Month
  12,                                     !- End Month
  31,                                     !- End Day of Month
  ,                                       !- Use Weather File Holidays and Special Days
  ,                                       !- Use Weather File Daylight Saving Period
  ,                                       !- Apply Weekend Holiday Rule
  ,                                       !- Use Weather File Rain Indicators
  ,                                       !- Use Weather File Snow Indicators
  ;                                       !- Number of Times Runperiod to be Repeated

OS:LifeCycleCost:Parameters,
  {b5bc2625-c33b-4ea2-adef-0db0e92ba3b6}, !- Handle
  ,                                       !- Analysis Type
  ,                                       !- Discounting Convention
  ,                                       !- Inflation Approach
  ,                                       !- Real Discount Rate
  ,                                       !- Nominal Discount Rate
  ,                                       !- Inflation
  ,                                       !- Base Date Month
  ,                                       !- Base Date Year
  ,                                       !- Service Date Month
  ,                                       !- Service Date Year
  ;                                       !- Length of Study Period in Years

OS:ThermalZone,
  {b0162574-26b9-4e4f-a7e3-c7e624e7c520}, !- Handle
  living zone,                            !- Name
  ,                                       !- Multiplier
  ,                                       !- Ceiling Height {m}
  ,                                       !- Volume {m3}
  ,                                       !- Floor Area {m2}
  ,                                       !- Zone Inside Convection Algorithm
  ,                                       !- Zone Outside Convection Algorithm
  ,                                       !- Zone Conditioning Equipment List Name
  {a3a08026-0bcc-4691-be4b-569274c99f68}, !- Zone Air Inlet Port List
  {8c1dd94a-609e-4407-beb9-f58631eea747}, !- Zone Air Exhaust Port List
  {b566a4a7-6eae-4fef-8e2e-9e0b33f22b23}, !- Zone Air Node Name
  {4b6907c0-2770-4632-93f8-87bc25748a4f}, !- Zone Return Air Node Name
  ,                                       !- Primary Daylighting Control Name
  ,                                       !- Fraction of Zone Controlled by Primary Daylighting Control
  ,                                       !- Secondary Daylighting Control Name
  ,                                       !- Fraction of Zone Controlled by Secondary Daylighting Control
  ,                                       !- Illuminance Map Name
  ,                                       !- Group Rendering Name
  {8eae0201-99e8-4b53-9a29-e63eca355703}, !- Thermostat Name
  No;                                     !- Use Ideal Air Loads

OS:Node,
  {acaa2532-fbeb-4b30-96bc-b76aa3c38fed}, !- Handle
  Node 1,                                 !- Name
  {b566a4a7-6eae-4fef-8e2e-9e0b33f22b23}, !- Inlet Port
  ;                                       !- Outlet Port

OS:Connection,
  {b566a4a7-6eae-4fef-8e2e-9e0b33f22b23}, !- Handle
  {d81e384b-4eab-4a7e-b836-6a2118cf61e1}, !- Name
  {b0162574-26b9-4e4f-a7e3-c7e624e7c520}, !- Source Object
  11,                                     !- Outlet Port
  {acaa2532-fbeb-4b30-96bc-b76aa3c38fed}, !- Target Object
  2;                                      !- Inlet Port

OS:PortList,
  {a3a08026-0bcc-4691-be4b-569274c99f68}, !- Handle
  {808b28e9-e8ed-4eaa-8248-318f6d112266}, !- Name
  {b0162574-26b9-4e4f-a7e3-c7e624e7c520}, !- HVAC Component
  {60b4abbf-1c0b-4378-ab2d-3d8a8fc70053}; !- Port 1

OS:PortList,
  {8c1dd94a-609e-4407-beb9-f58631eea747}, !- Handle
  {c51dbc27-2584-4c0e-8d11-ef2dcf522ea8}, !- Name
  {b0162574-26b9-4e4f-a7e3-c7e624e7c520}; !- HVAC Component

OS:Sizing:Zone,
  {8ccdec66-2c89-481e-850d-1291a2790ce2}, !- Handle
  {b0162574-26b9-4e4f-a7e3-c7e624e7c520}, !- Zone or ZoneList Name
  SupplyAirTemperature,                   !- Zone Cooling Design Supply Air Temperature Input Method
  14,                                     !- Zone Cooling Design Supply Air Temperature {C}
  11.11,                                  !- Zone Cooling Design Supply Air Temperature Difference {deltaC}
  SupplyAirTemperature,                   !- Zone Heating Design Supply Air Temperature Input Method
  40,                                     !- Zone Heating Design Supply Air Temperature {C}
  11.11,                                  !- Zone Heating Design Supply Air Temperature Difference {deltaC}
  0.0085,                                 !- Zone Cooling Design Supply Air Humidity Ratio {kg-H2O/kg-air}
  0.008,                                  !- Zone Heating Design Supply Air Humidity Ratio {kg-H2O/kg-air}
  ,                                       !- Zone Heating Sizing Factor
  ,                                       !- Zone Cooling Sizing Factor
  DesignDay,                              !- Cooling Design Air Flow Method
  ,                                       !- Cooling Design Air Flow Rate {m3/s}
  ,                                       !- Cooling Minimum Air Flow per Zone Floor Area {m3/s-m2}
  ,                                       !- Cooling Minimum Air Flow {m3/s}
  ,                                       !- Cooling Minimum Air Flow Fraction
  DesignDay,                              !- Heating Design Air Flow Method
  ,                                       !- Heating Design Air Flow Rate {m3/s}
  ,                                       !- Heating Maximum Air Flow per Zone Floor Area {m3/s-m2}
  ,                                       !- Heating Maximum Air Flow {m3/s}
  ,                                       !- Heating Maximum Air Flow Fraction
  ,                                       !- Design Zone Air Distribution Effectiveness in Cooling Mode
  ,                                       !- Design Zone Air Distribution Effectiveness in Heating Mode
  No,                                     !- Account for Dedicated Outdoor Air System
  NeutralSupplyAir,                       !- Dedicated Outdoor Air System Control Strategy
  autosize,                               !- Dedicated Outdoor Air Low Setpoint Temperature for Design {C}
  autosize;                               !- Dedicated Outdoor Air High Setpoint Temperature for Design {C}

OS:ZoneHVAC:EquipmentList,
  {a581e797-40cc-4d9e-ad30-50f8a36393e2}, !- Handle
  Zone HVAC Equipment List 1,             !- Name
  {b0162574-26b9-4e4f-a7e3-c7e624e7c520}, !- Thermal Zone
  {7ecdf9b7-e8be-4671-8762-c56c9b176570}, !- Zone Equipment 1
  1,                                      !- Zone Equipment Cooling Sequence 1
  1;                                      !- Zone Equipment Heating or No-Load Sequence 1

OS:Space,
  {02bb1f18-91c5-49fc-9dfc-3a7bf9947805}, !- Handle
  living space,                           !- Name
  {1b8b59e6-ca52-4daa-85b2-1b54382747c8}, !- Space Type Name
  ,                                       !- Default Construction Set Name
  ,                                       !- Default Schedule Set Name
  ,                                       !- Direction of Relative North {deg}
  ,                                       !- X Origin {m}
  ,                                       !- Y Origin {m}
  ,                                       !- Z Origin {m}
  ,                                       !- Building Story Name
  {b0162574-26b9-4e4f-a7e3-c7e624e7c520}, !- Thermal Zone Name
  ,                                       !- Part of Total Floor Area
  ,                                       !- Design Specification Outdoor Air Object Name
  {76f48ba7-419a-4d33-9d31-084649f5de51}; !- Building Unit Name

OS:Surface,
  {e022e303-49ce-43e5-9639-e004846f736e}, !- Handle
  Surface 1,                              !- Name
  Floor,                                  !- Surface Type
  ,                                       !- Construction Name
  {02bb1f18-91c5-49fc-9dfc-3a7bf9947805}, !- Space Name
  Foundation,                             !- Outside Boundary Condition
  ,                                       !- Outside Boundary Condition Object
  NoSun,                                  !- Sun Exposure
  NoWind,                                 !- Wind Exposure
  ,                                       !- View Factor to Ground
  ,                                       !- Number of Vertices
  0, -6.46578440716979, 0,                !- X,Y,Z Vertex 1 {m}
  0, 0, 0,                                !- X,Y,Z Vertex 2 {m}
  3.59210244842766, 0, 0,                 !- X,Y,Z Vertex 3 {m}
  3.59210244842766, -6.46578440716979, 0; !- X,Y,Z Vertex 4 {m}

OS:Surface,
  {35fbc5db-7b3a-43b1-851f-02c3d8eca9e3}, !- Handle
  Surface 2,                              !- Name
  Wall,                                   !- Surface Type
  ,                                       !- Construction Name
  {02bb1f18-91c5-49fc-9dfc-3a7bf9947805}, !- Space Name
  Outdoors,                               !- Outside Boundary Condition
  ,                                       !- Outside Boundary Condition Object
  SunExposed,                             !- Sun Exposure
  WindExposed,                            !- Wind Exposure
  ,                                       !- View Factor to Ground
  ,                                       !- Number of Vertices
  0, 0, 2.4384,                           !- X,Y,Z Vertex 1 {m}
  0, 0, 0,                                !- X,Y,Z Vertex 2 {m}
  0, -6.46578440716979, 0,                !- X,Y,Z Vertex 3 {m}
  0, -6.46578440716979, 2.4384;           !- X,Y,Z Vertex 4 {m}

OS:Surface,
  {38389245-67b1-4510-9942-c7cf352a84e6}, !- Handle
  Surface 3,                              !- Name
  Wall,                                   !- Surface Type
  ,                                       !- Construction Name
  {02bb1f18-91c5-49fc-9dfc-3a7bf9947805}, !- Space Name
  Outdoors,                               !- Outside Boundary Condition
  ,                                       !- Outside Boundary Condition Object
  SunExposed,                             !- Sun Exposure
  WindExposed,                            !- Wind Exposure
  ,                                       !- View Factor to Ground
  ,                                       !- Number of Vertices
  3.59210244842766, 0, 2.4384,            !- X,Y,Z Vertex 1 {m}
  3.59210244842766, 0, 0,                 !- X,Y,Z Vertex 2 {m}
  0, 0, 0,                                !- X,Y,Z Vertex 3 {m}
  0, 0, 2.4384;                           !- X,Y,Z Vertex 4 {m}

OS:Surface,
  {15a48c74-8772-4580-ac6f-76728f579d42}, !- Handle
  Surface 4,                              !- Name
  Wall,                                   !- Surface Type
  ,                                       !- Construction Name
  {02bb1f18-91c5-49fc-9dfc-3a7bf9947805}, !- Space Name
  Surface,                                !- Outside Boundary Condition
  {aec42b78-2421-4903-a383-f0ab8fb00777}, !- Outside Boundary Condition Object
  NoSun,                                  !- Sun Exposure
  NoWind,                                 !- Wind Exposure
  ,                                       !- View Factor to Ground
  ,                                       !- Number of Vertices
  3.59210244842766, -6.46578440716979, 2.4384, !- X,Y,Z Vertex 1 {m}
  3.59210244842766, -6.46578440716979, 0, !- X,Y,Z Vertex 2 {m}
  3.59210244842766, 0, 0,                 !- X,Y,Z Vertex 3 {m}
  3.59210244842766, 0, 2.4384;            !- X,Y,Z Vertex 4 {m}

OS:Surface,
  {e62ededb-d1fb-4a4b-83d0-77f848392178}, !- Handle
  Surface 5,                              !- Name
  Wall,                                   !- Surface Type
  ,                                       !- Construction Name
  {02bb1f18-91c5-49fc-9dfc-3a7bf9947805}, !- Space Name
  Outdoors,                               !- Outside Boundary Condition
  ,                                       !- Outside Boundary Condition Object
  SunExposed,                             !- Sun Exposure
  WindExposed,                            !- Wind Exposure
  ,                                       !- View Factor to Ground
  ,                                       !- Number of Vertices
  0, -6.46578440716979, 2.4384,           !- X,Y,Z Vertex 1 {m}
  0, -6.46578440716979, 0,                !- X,Y,Z Vertex 2 {m}
  3.59210244842766, -6.46578440716979, 0, !- X,Y,Z Vertex 3 {m}
  3.59210244842766, -6.46578440716979, 2.4384; !- X,Y,Z Vertex 4 {m}

OS:Surface,
  {28d8386a-2858-4438-bceb-7902808cd896}, !- Handle
  Surface 6,                              !- Name
  RoofCeiling,                            !- Surface Type
  ,                                       !- Construction Name
  {02bb1f18-91c5-49fc-9dfc-3a7bf9947805}, !- Space Name
  Surface,                                !- Outside Boundary Condition
  {1f5a613c-5a8f-44c7-a57f-640d4da1b01e}, !- Outside Boundary Condition Object
  NoSun,                                  !- Sun Exposure
  NoWind,                                 !- Wind Exposure
  ,                                       !- View Factor to Ground
  ,                                       !- Number of Vertices
  3.59210244842766, -6.46578440716979, 2.4384, !- X,Y,Z Vertex 1 {m}
  3.59210244842766, 0, 2.4384,            !- X,Y,Z Vertex 2 {m}
  0, 0, 2.4384,                           !- X,Y,Z Vertex 3 {m}
  0, -6.46578440716979, 2.4384;           !- X,Y,Z Vertex 4 {m}

OS:SpaceType,
  {1b8b59e6-ca52-4daa-85b2-1b54382747c8}, !- Handle
  Space Type 1,                           !- Name
  ,                                       !- Default Construction Set Name
  ,                                       !- Default Schedule Set Name
  ,                                       !- Group Rendering Name
  ,                                       !- Design Specification Outdoor Air Object Name
  ,                                       !- Standards Building Type
  living;                                 !- Standards Space Type

OS:Space,
  {2f38d0f8-bc2d-4b6f-b44a-3d9c2e6b7d7f}, !- Handle
  living space|story 2,                   !- Name
  {1b8b59e6-ca52-4daa-85b2-1b54382747c8}, !- Space Type Name
  ,                                       !- Default Construction Set Name
  ,                                       !- Default Schedule Set Name
  -0,                                     !- Direction of Relative North {deg}
  0,                                      !- X Origin {m}
  0,                                      !- Y Origin {m}
  2.4384,                                 !- Z Origin {m}
  ,                                       !- Building Story Name
  {b0162574-26b9-4e4f-a7e3-c7e624e7c520}, !- Thermal Zone Name
  ,                                       !- Part of Total Floor Area
  ,                                       !- Design Specification Outdoor Air Object Name
  {76f48ba7-419a-4d33-9d31-084649f5de51}; !- Building Unit Name

OS:Surface,
  {a2a76cbc-b3ee-46c0-bdcc-8e067e2e0f75}, !- Handle
  Surface 7,                              !- Name
  Wall,                                   !- Surface Type
  ,                                       !- Construction Name
  {2f38d0f8-bc2d-4b6f-b44a-3d9c2e6b7d7f}, !- Space Name
  Outdoors,                               !- Outside Boundary Condition
  ,                                       !- Outside Boundary Condition Object
  SunExposed,                             !- Sun Exposure
  WindExposed,                            !- Wind Exposure
  ,                                       !- View Factor to Ground
  ,                                       !- Number of Vertices
  3.59210244842766, 0, 2.4384,            !- X,Y,Z Vertex 1 {m}
  3.59210244842766, 0, 0,                 !- X,Y,Z Vertex 2 {m}
  0, 0, 0,                                !- X,Y,Z Vertex 3 {m}
  0, 0, 2.4384;                           !- X,Y,Z Vertex 4 {m}

OS:Surface,
  {572e3820-e239-4d04-8d56-1a55d6d96239}, !- Handle
  Surface 8,                              !- Name
  Wall,                                   !- Surface Type
  ,                                       !- Construction Name
  {2f38d0f8-bc2d-4b6f-b44a-3d9c2e6b7d7f}, !- Space Name
  Outdoors,                               !- Outside Boundary Condition
  ,                                       !- Outside Boundary Condition Object
  SunExposed,                             !- Sun Exposure
  WindExposed,                            !- Wind Exposure
  ,                                       !- View Factor to Ground
  ,                                       !- Number of Vertices
  0, -6.46578440716979, 2.4384,           !- X,Y,Z Vertex 1 {m}
  0, -6.46578440716979, 0,                !- X,Y,Z Vertex 2 {m}
  3.59210244842766, -6.46578440716979, 0, !- X,Y,Z Vertex 3 {m}
  3.59210244842766, -6.46578440716979, 2.4384; !- X,Y,Z Vertex 4 {m}

OS:Surface,
  {47138ac0-e2a4-4d70-9908-8897bc68f211}, !- Handle
  Surface 9,                              !- Name
  RoofCeiling,                            !- Surface Type
  ,                                       !- Construction Name
  {2f38d0f8-bc2d-4b6f-b44a-3d9c2e6b7d7f}, !- Space Name
  Surface,                                !- Outside Boundary Condition
  {33c8c0b4-9ab3-47c1-9b03-2eee43ea6443}, !- Outside Boundary Condition Object
  NoSun,                                  !- Sun Exposure
  NoWind,                                 !- Wind Exposure
  ,                                       !- View Factor to Ground
  ,                                       !- Number of Vertices
  3.59210244842766, -6.46578440716979, 2.4384, !- X,Y,Z Vertex 1 {m}
  3.59210244842766, 0, 2.4384,            !- X,Y,Z Vertex 2 {m}
  0, 0, 2.4384,                           !- X,Y,Z Vertex 3 {m}
  0, -6.46578440716979, 2.4384;           !- X,Y,Z Vertex 4 {m}

OS:Surface,
  {c2a89487-4fa6-496b-94a9-c4a0f8a98643}, !- Handle
  Surface 10,                             !- Name
  Wall,                                   !- Surface Type
  ,                                       !- Construction Name
  {2f38d0f8-bc2d-4b6f-b44a-3d9c2e6b7d7f}, !- Space Name
  Surface,                                !- Outside Boundary Condition
  {fb8a3c77-4640-4473-8f31-e7eb54cbe3d6}, !- Outside Boundary Condition Object
  NoSun,                                  !- Sun Exposure
  NoWind,                                 !- Wind Exposure
  ,                                       !- View Factor to Ground
  ,                                       !- Number of Vertices
  3.59210244842766, -6.46578440716979, 2.4384, !- X,Y,Z Vertex 1 {m}
  3.59210244842766, -6.46578440716979, 0, !- X,Y,Z Vertex 2 {m}
  3.59210244842766, 0, 0,                 !- X,Y,Z Vertex 3 {m}
  3.59210244842766, 0, 2.4384;            !- X,Y,Z Vertex 4 {m}

OS:Surface,
  {58061005-a035-4254-ba5e-68562792f5e6}, !- Handle
  Surface 11,                             !- Name
  Wall,                                   !- Surface Type
  ,                                       !- Construction Name
  {2f38d0f8-bc2d-4b6f-b44a-3d9c2e6b7d7f}, !- Space Name
  Outdoors,                               !- Outside Boundary Condition
  ,                                       !- Outside Boundary Condition Object
  SunExposed,                             !- Sun Exposure
  WindExposed,                            !- Wind Exposure
  ,                                       !- View Factor to Ground
  ,                                       !- Number of Vertices
  0, 0, 2.4384,                           !- X,Y,Z Vertex 1 {m}
  0, 0, 0,                                !- X,Y,Z Vertex 2 {m}
  0, -6.46578440716979, 0,                !- X,Y,Z Vertex 3 {m}
  0, -6.46578440716979, 2.4384;           !- X,Y,Z Vertex 4 {m}

OS:Surface,
  {1f5a613c-5a8f-44c7-a57f-640d4da1b01e}, !- Handle
  Surface 12,                             !- Name
  Floor,                                  !- Surface Type
  ,                                       !- Construction Name
  {2f38d0f8-bc2d-4b6f-b44a-3d9c2e6b7d7f}, !- Space Name
  Surface,                                !- Outside Boundary Condition
  {28d8386a-2858-4438-bceb-7902808cd896}, !- Outside Boundary Condition Object
  NoSun,                                  !- Sun Exposure
  NoWind,                                 !- Wind Exposure
  ,                                       !- View Factor to Ground
  ,                                       !- Number of Vertices
  0, -6.46578440716979, 0,                !- X,Y,Z Vertex 1 {m}
  0, 0, 0,                                !- X,Y,Z Vertex 2 {m}
  3.59210244842766, 0, 0,                 !- X,Y,Z Vertex 3 {m}
  3.59210244842766, -6.46578440716979, 0; !- X,Y,Z Vertex 4 {m}

OS:ThermalZone,
  {d4cf7d93-cdae-4984-85ca-835275ceebb1}, !- Handle
  living zone|unit 2,                     !- Name
  ,                                       !- Multiplier
  ,                                       !- Ceiling Height {m}
  ,                                       !- Volume {m3}
  ,                                       !- Floor Area {m2}
  ,                                       !- Zone Inside Convection Algorithm
  ,                                       !- Zone Outside Convection Algorithm
  ,                                       !- Zone Conditioning Equipment List Name
  {d4ccd7f7-43ce-4fbd-907a-ec96656534c6}, !- Zone Air Inlet Port List
  {f886e151-60f8-41ee-bd86-ff40e656b5b8}, !- Zone Air Exhaust Port List
  {ad482071-139c-4aed-9ce6-3eb17f971b41}, !- Zone Air Node Name
  {bf51ed33-6128-4048-9d96-3f06aa394663}, !- Zone Return Air Node Name
  ,                                       !- Primary Daylighting Control Name
  ,                                       !- Fraction of Zone Controlled by Primary Daylighting Control
  ,                                       !- Secondary Daylighting Control Name
  ,                                       !- Fraction of Zone Controlled by Secondary Daylighting Control
  ,                                       !- Illuminance Map Name
  ,                                       !- Group Rendering Name
  {60e621a8-fe99-42bc-a3ad-d1aafb8ee04d}, !- Thermostat Name
  No;                                     !- Use Ideal Air Loads

OS:Node,
  {ea181992-6c7b-4324-a439-690a25323b2e}, !- Handle
  Node 2,                                 !- Name
  {ad482071-139c-4aed-9ce6-3eb17f971b41}, !- Inlet Port
  ;                                       !- Outlet Port

OS:Connection,
  {ad482071-139c-4aed-9ce6-3eb17f971b41}, !- Handle
  {6fe7d745-a524-42cf-bd1d-4439e293c690}, !- Name
  {d4cf7d93-cdae-4984-85ca-835275ceebb1}, !- Source Object
  11,                                     !- Outlet Port
  {ea181992-6c7b-4324-a439-690a25323b2e}, !- Target Object
  2;                                      !- Inlet Port

OS:PortList,
  {d4ccd7f7-43ce-4fbd-907a-ec96656534c6}, !- Handle
  {beb69877-656f-4425-81d6-3a0bf8ebbce1}, !- Name
  {d4cf7d93-cdae-4984-85ca-835275ceebb1}, !- HVAC Component
  {9b13e7bd-c333-45cc-8426-6f57d4fe67d8}; !- Port 1

OS:PortList,
  {f886e151-60f8-41ee-bd86-ff40e656b5b8}, !- Handle
  {3d74ddf7-0406-48a3-a15c-aa7dc8d64a46}, !- Name
  {d4cf7d93-cdae-4984-85ca-835275ceebb1}; !- HVAC Component

OS:Sizing:Zone,
  {331d441c-33cf-40a2-9df6-e96d175f4933}, !- Handle
  {d4cf7d93-cdae-4984-85ca-835275ceebb1}, !- Zone or ZoneList Name
  SupplyAirTemperature,                   !- Zone Cooling Design Supply Air Temperature Input Method
  14,                                     !- Zone Cooling Design Supply Air Temperature {C}
  11.11,                                  !- Zone Cooling Design Supply Air Temperature Difference {deltaC}
  SupplyAirTemperature,                   !- Zone Heating Design Supply Air Temperature Input Method
  40,                                     !- Zone Heating Design Supply Air Temperature {C}
  11.11,                                  !- Zone Heating Design Supply Air Temperature Difference {deltaC}
  0.0085,                                 !- Zone Cooling Design Supply Air Humidity Ratio {kg-H2O/kg-air}
  0.008,                                  !- Zone Heating Design Supply Air Humidity Ratio {kg-H2O/kg-air}
  ,                                       !- Zone Heating Sizing Factor
  ,                                       !- Zone Cooling Sizing Factor
  DesignDay,                              !- Cooling Design Air Flow Method
  ,                                       !- Cooling Design Air Flow Rate {m3/s}
  ,                                       !- Cooling Minimum Air Flow per Zone Floor Area {m3/s-m2}
  ,                                       !- Cooling Minimum Air Flow {m3/s}
  ,                                       !- Cooling Minimum Air Flow Fraction
  DesignDay,                              !- Heating Design Air Flow Method
  ,                                       !- Heating Design Air Flow Rate {m3/s}
  ,                                       !- Heating Maximum Air Flow per Zone Floor Area {m3/s-m2}
  ,                                       !- Heating Maximum Air Flow {m3/s}
  ,                                       !- Heating Maximum Air Flow Fraction
  ,                                       !- Design Zone Air Distribution Effectiveness in Cooling Mode
  ,                                       !- Design Zone Air Distribution Effectiveness in Heating Mode
  No,                                     !- Account for Dedicated Outdoor Air System
  NeutralSupplyAir,                       !- Dedicated Outdoor Air System Control Strategy
  autosize,                               !- Dedicated Outdoor Air Low Setpoint Temperature for Design {C}
  autosize;                               !- Dedicated Outdoor Air High Setpoint Temperature for Design {C}

OS:ZoneHVAC:EquipmentList,
  {3aa21452-a710-4ada-bc6f-965748a9c5b2}, !- Handle
  Zone HVAC Equipment List 2,             !- Name
  {d4cf7d93-cdae-4984-85ca-835275ceebb1}, !- Thermal Zone
  {2b7af690-c13c-4298-9bfd-48eec28254f6}, !- Zone Equipment 1
  1,                                      !- Zone Equipment Cooling Sequence 1
  1;                                      !- Zone Equipment Heating or No-Load Sequence 1

OS:Space,
  {2d718ad3-65b4-4adf-9d6d-6dfe27c7df3a}, !- Handle
  living space|unit 2|story 1,            !- Name
  {1b8b59e6-ca52-4daa-85b2-1b54382747c8}, !- Space Type Name
  ,                                       !- Default Construction Set Name
  ,                                       !- Default Schedule Set Name
  -0,                                     !- Direction of Relative North {deg}
  0,                                      !- X Origin {m}
  0,                                      !- Y Origin {m}
  0,                                      !- Z Origin {m}
  ,                                       !- Building Story Name
  {d4cf7d93-cdae-4984-85ca-835275ceebb1}, !- Thermal Zone Name
  ,                                       !- Part of Total Floor Area
  ,                                       !- Design Specification Outdoor Air Object Name
  {d87980fe-f045-403f-8abd-037361921c19}; !- Building Unit Name

OS:Surface,
  {e0b87917-d9ef-40f4-8914-c08b6395207a}, !- Handle