!- NOTE: Auto-generated from /test/osw_files/SFA_4units_1story_UB_UA_3Beds_2Baths_Denver.osw

OS:Version,
  {7ac4aacf-d4ba-4bbd-8d7f-4cfd0487d740}, !- Handle
  2.6.0;                                  !- Version Identifier

OS:Building,
  {4c1ac816-1d54-442e-a27c-e43bfa493701}, !- Handle
  Building 1,                             !- Name
  ,                                       !- Building Sector Type
  0,                                      !- North Axis {deg}
  ,                                       !- Nominal Floor to Floor Height {m}
  ,                                       !- Space Type Name
  ,                                       !- Default Construction Set Name
  ,                                       !- Default Schedule Set Name
  2,                                      !- Standards Number of Stories
  1,                                      !- Standards Number of Above Ground Stories
  singlefamilyttached,                    !- Standards Building Type
  4;                                      !- Standards Number of Living Units

OS:Facility,
  {0e29532d-7200-4f7f-b9d1-290473884b32}; !- Handle

OS:Site,
  {79806123-2f19-43ab-bca0-0af4582fe646}, !- Handle
  Denver Intl Ap_CO_USA,                  !- Name
  39.83,                                  !- Latitude {deg}
  -104.65,                                !- Longitude {deg}
  -7,                                     !- Time Zone {hr}
  1650,                                   !- Elevation {m}
  ;                                       !- Terrain

OS:SimulationControl,
  {f7ee61da-ec23-4c09-9a71-2cbbd7a0ff14}, !- Handle
  ,                                       !- Do Zone Sizing Calculation
  ,                                       !- Do System Sizing Calculation
  ,                                       !- Do Plant Sizing Calculation
  No;                                     !- Run Simulation for Sizing Periods

OS:Sizing:Parameters,
  {f274322f-4a16-4271-972b-f226fcad09f4}, !- Handle
  1.25,                                   !- Heating Sizing Factor
  1.15;                                   !- Cooling Sizing Factor

OS:Timestep,
  {b27c2d26-0a57-499e-bc94-043016a230a7}, !- Handle
  6;                                      !- Number of Timesteps per Hour

OS:ShadowCalculation,
  {839c8b64-ec62-4dbe-94fb-60c57428becf}, !- Handle
  20,                                     !- Calculation Frequency
  200;                                    !- Maximum Figures in Shadow Overlap Calculations

OS:HeatBalanceAlgorithm,
  {ded34599-ce26-426d-a330-d4f15562c9cc}, !- Handle
  ConductionTransferFunction,             !- Algorithm
  200;                                    !- Surface Temperature Upper Limit {C}

OS:RunPeriod,
  {377f8d7c-1850-4b78-8e81-29b55273719e}, !- Handle
  Run Period 1,                           !- Name
  1,                                      !- Begin Month
  1,                                      !- Begin Day of Month
  12,                                     !- End Month
  31,                                     !- End Day of Month
  ,                                       !- Use Weather File Holidays and Special Days
  ,                                       !- Use Weather File Daylight Saving Period
  ,                                       !- Apply Weekend Holiday Rule
  ,                                       !- Use Weather File Rain Indicators
  ,                                       !- Use Weather File Snow Indicators
  ;                                       !- Number of Times Runperiod to be Repeated

OS:LifeCycleCost:Parameters,
  {ae4a4926-4911-4c9a-845d-6e0e34bdd3fb}, !- Handle
  ,                                       !- Analysis Type
  ,                                       !- Discounting Convention
  ,                                       !- Inflation Approach
  ,                                       !- Real Discount Rate
  ,                                       !- Nominal Discount Rate
  ,                                       !- Inflation
  ,                                       !- Base Date Month
  ,                                       !- Base Date Year
  ,                                       !- Service Date Month
  ,                                       !- Service Date Year
  ;                                       !- Length of Study Period in Years

OS:SurfaceConvectionAlgorithm:Outside,
  {c11776c0-5520-4520-b9cc-1822b39890d9}, !- Handle
  DOE-2;                                  !- Algorithm

OS:SurfaceConvectionAlgorithm:Inside,
  {5013bb8d-3053-4220-b02e-3e94b188c57d}, !- Handle
  TARP;                                   !- Algorithm

OS:ZoneCapacitanceMultiplier:ResearchSpecial,
  {465b3ec3-f8c7-4ec9-8c9f-fa720324a72c}, !- Handle
  ,                                       !- Temperature Capacity Multiplier
  15,                                     !- Humidity Capacity Multiplier
  ;                                       !- Carbon Dioxide Capacity Multiplier

OS:ThermalZone,
  {98e4269f-0426-44e5-a873-7860f25fc62b}, !- Handle
  living zone,                            !- Name
  ,                                       !- Multiplier
  ,                                       !- Ceiling Height {m}
  ,                                       !- Volume {m3}
  ,                                       !- Floor Area {m2}
  ,                                       !- Zone Inside Convection Algorithm
  ,                                       !- Zone Outside Convection Algorithm
  ,                                       !- Zone Conditioning Equipment List Name
  {29514909-7ecd-4e32-bd3a-c166e4593848}, !- Zone Air Inlet Port List
  {e0265a1e-50db-42e6-a43f-b30ff046ad3d}, !- Zone Air Exhaust Port List
  {b21b5f50-53a4-450a-a8ae-5819875e9dad}, !- Zone Air Node Name
  ,                                       !- Zone Return Air Node Name
  ,                                       !- Primary Daylighting Control Name
  ,                                       !- Fraction of Zone Controlled by Primary Daylighting Control
  ,                                       !- Secondary Daylighting Control Name
  ,                                       !- Fraction of Zone Controlled by Secondary Daylighting Control
  ,                                       !- Illuminance Map Name
  ,                                       !- Group Rendering Name
  ,                                       !- Thermostat Name
  No;                                     !- Use Ideal Air Loads

OS:Node,
  {d2bf5ac9-4211-47ab-8e56-a5237be71a85}, !- Handle
  Node 1,                                 !- Name
  {b21b5f50-53a4-450a-a8ae-5819875e9dad}, !- Inlet Port
  ;                                       !- Outlet Port

OS:Connection,
  {b21b5f50-53a4-450a-a8ae-5819875e9dad}, !- Handle
  {6fc53f5d-865f-4a29-82e7-5719fefbd74c}, !- Name
  {98e4269f-0426-44e5-a873-7860f25fc62b}, !- Source Object
  11,                                     !- Outlet Port
  {d2bf5ac9-4211-47ab-8e56-a5237be71a85}, !- Target Object
  2;                                      !- Inlet Port

OS:PortList,
  {29514909-7ecd-4e32-bd3a-c166e4593848}, !- Handle
  {34a3b752-0bfa-4c76-afdd-e489bec7ece0}, !- Name
  {98e4269f-0426-44e5-a873-7860f25fc62b}; !- HVAC Component

OS:PortList,
  {e0265a1e-50db-42e6-a43f-b30ff046ad3d}, !- Handle
  {643169f0-d454-4c16-aa62-90c6565d256a}, !- Name
  {98e4269f-0426-44e5-a873-7860f25fc62b}; !- HVAC Component

OS:Sizing:Zone,
  {b20d3980-43f6-4d34-9654-3de94f15d714}, !- Handle
  {98e4269f-0426-44e5-a873-7860f25fc62b}, !- Zone or ZoneList Name
  SupplyAirTemperature,                   !- Zone Cooling Design Supply Air Temperature Input Method
  14,                                     !- Zone Cooling Design Supply Air Temperature {C}
  11.11,                                  !- Zone Cooling Design Supply Air Temperature Difference {deltaC}
  SupplyAirTemperature,                   !- Zone Heating Design Supply Air Temperature Input Method
  40,                                     !- Zone Heating Design Supply Air Temperature {C}
  11.11,                                  !- Zone Heating Design Supply Air Temperature Difference {deltaC}
  0.0085,                                 !- Zone Cooling Design Supply Air Humidity Ratio {kg-H2O/kg-air}
  0.008,                                  !- Zone Heating Design Supply Air Humidity Ratio {kg-H2O/kg-air}
  ,                                       !- Zone Heating Sizing Factor
  ,                                       !- Zone Cooling Sizing Factor
  DesignDay,                              !- Cooling Design Air Flow Method
  ,                                       !- Cooling Design Air Flow Rate {m3/s}
  ,                                       !- Cooling Minimum Air Flow per Zone Floor Area {m3/s-m2}
  ,                                       !- Cooling Minimum Air Flow {m3/s}
  ,                                       !- Cooling Minimum Air Flow Fraction
  DesignDay,                              !- Heating Design Air Flow Method
  ,                                       !- Heating Design Air Flow Rate {m3/s}
  ,                                       !- Heating Maximum Air Flow per Zone Floor Area {m3/s-m2}
  ,                                       !- Heating Maximum Air Flow {m3/s}
  ,                                       !- Heating Maximum Air Flow Fraction
  ,                                       !- Design Zone Air Distribution Effectiveness in Cooling Mode
  ,                                       !- Design Zone Air Distribution Effectiveness in Heating Mode
  No,                                     !- Account for Dedicated Outdoor Air System
  NeutralSupplyAir,                       !- Dedicated Outdoor Air System Control Strategy
  autosize,                               !- Dedicated Outdoor Air Low Setpoint Temperature for Design {C}
  autosize;                               !- Dedicated Outdoor Air High Setpoint Temperature for Design {C}

OS:ZoneHVAC:EquipmentList,
  {861a2e36-1ed7-4541-b3bb-eb89694230a7}, !- Handle
  Zone HVAC Equipment List 1,             !- Name
  {98e4269f-0426-44e5-a873-7860f25fc62b}; !- Thermal Zone

OS:Space,
  {aca2a8e4-79e6-41c6-94dc-92a5d3d7d06a}, !- Handle
  living space,                           !- Name
  {0de4d630-3d25-467f-b7dc-53292cc60b09}, !- Space Type Name
  ,                                       !- Default Construction Set Name
  ,                                       !- Default Schedule Set Name
  ,                                       !- Direction of Relative North {deg}
  ,                                       !- X Origin {m}
  ,                                       !- Y Origin {m}
  ,                                       !- Z Origin {m}
  ,                                       !- Building Story Name
  {98e4269f-0426-44e5-a873-7860f25fc62b}, !- Thermal Zone Name
  ,                                       !- Part of Total Floor Area
  ,                                       !- Design Specification Outdoor Air Object Name
  {a12be4c8-e360-4e99-a11b-629cdf6ff22c}; !- Building Unit Name

OS:Surface,
  {746fa7aa-7acc-41c9-91aa-ad3879e8bd32}, !- Handle
  Surface 1,                              !- Name
  Floor,                                  !- Surface Type
  ,                                       !- Construction Name
  {aca2a8e4-79e6-41c6-94dc-92a5d3d7d06a}, !- Space Name
  Surface,                                !- Outside Boundary Condition
  {5660c85f-07af-47bd-95c1-ab949c5a1421}, !- Outside Boundary Condition Object
  NoSun,                                  !- Sun Exposure
  NoWind,                                 !- Wind Exposure
  ,                                       !- View Factor to Ground
  ,                                       !- Number of Vertices
  0, -12.9315688143396, 0,                !- X,Y,Z Vertex 1 {m}
  0, 0, 0,                                !- X,Y,Z Vertex 2 {m}
  6.46578440716979, 0, 0,                 !- X,Y,Z Vertex 3 {m}
  6.46578440716979, -12.9315688143396, 0; !- X,Y,Z Vertex 4 {m}

OS:Surface,
  {7502f561-d4a4-4017-a508-ef62daa3d338}, !- Handle
  Surface 2,                              !- Name
  Wall,                                   !- Surface Type
  ,                                       !- Construction Name
  {aca2a8e4-79e6-41c6-94dc-92a5d3d7d06a}, !- Space Name
  Outdoors,                               !- Outside Boundary Condition
  ,                                       !- Outside Boundary Condition Object
  SunExposed,                             !- Sun Exposure
  WindExposed,                            !- Wind Exposure
  ,                                       !- View Factor to Ground
  ,                                       !- Number of Vertices
  0, 0, 2.4384,                           !- X,Y,Z Vertex 1 {m}
  0, 0, 0,                                !- X,Y,Z Vertex 2 {m}
  0, -12.9315688143396, 0,                !- X,Y,Z Vertex 3 {m}
  0, -12.9315688143396, 2.4384;           !- X,Y,Z Vertex 4 {m}

OS:Surface,
  {6b1b423d-2c3e-4e83-9e08-4fb1a13a8d70}, !- Handle
  Surface 3,                              !- Name
  Wall,                                   !- Surface Type
  ,                                       !- Construction Name
  {aca2a8e4-79e6-41c6-94dc-92a5d3d7d06a}, !- Space Name
  Outdoors,                               !- Outside Boundary Condition
  ,                                       !- Outside Boundary Condition Object
  SunExposed,                             !- Sun Exposure
  WindExposed,                            !- Wind Exposure
  ,                                       !- View Factor to Ground
  ,                                       !- Number of Vertices
  6.46578440716979, 0, 2.4384,            !- X,Y,Z Vertex 1 {m}
  6.46578440716979, 0, 0,                 !- X,Y,Z Vertex 2 {m}
  0, 0, 0,                                !- X,Y,Z Vertex 3 {m}
  0, 0, 2.4384;                           !- X,Y,Z Vertex 4 {m}

OS:Surface,
  {16604c3d-e4ad-45a9-833f-264a5cc10e8e}, !- Handle
  Surface 4,                              !- Name
  Wall,                                   !- Surface Type
  ,                                       !- Construction Name
  {aca2a8e4-79e6-41c6-94dc-92a5d3d7d06a}, !- Space Name
  Surface,                                !- Outside Boundary Condition
  {217f1d89-ad61-4c9f-aabd-6e028186a887}, !- Outside Boundary Condition Object
  NoSun,                                  !- Sun Exposure
  NoWind,                                 !- Wind Exposure
  ,                                       !- View Factor to Ground
  ,                                       !- Number of Vertices
  6.46578440716979, -12.9315688143396, 2.4384, !- X,Y,Z Vertex 1 {m}
  6.46578440716979, -12.9315688143396, 0, !- X,Y,Z Vertex 2 {m}
  6.46578440716979, 0, 0,                 !- X,Y,Z Vertex 3 {m}
  6.46578440716979, 0, 2.4384;            !- X,Y,Z Vertex 4 {m}

OS:Surface,
  {712540de-f488-405c-a145-582c3f641070}, !- Handle
  Surface 5,                              !- Name
  Wall,                                   !- Surface Type
  ,                                       !- Construction Name
  {aca2a8e4-79e6-41c6-94dc-92a5d3d7d06a}, !- Space Name
  Outdoors,                               !- Outside Boundary Condition
  ,                                       !- Outside Boundary Condition Object
  SunExposed,                             !- Sun Exposure
  WindExposed,                            !- Wind Exposure
  ,                                       !- View Factor to Ground
  ,                                       !- Number of Vertices
  0, -12.9315688143396, 2.4384,           !- X,Y,Z Vertex 1 {m}
  0, -12.9315688143396, 0,                !- X,Y,Z Vertex 2 {m}
  6.46578440716979, -12.9315688143396, 0, !- X,Y,Z Vertex 3 {m}
  6.46578440716979, -12.9315688143396, 2.4384; !- X,Y,Z Vertex 4 {m}

OS:Surface,
  {958c0534-80cf-4c7e-9168-ac78e641c3c5}, !- Handle
  Surface 6,                              !- Name
  RoofCeiling,                            !- Surface Type
  ,                                       !- Construction Name
  {aca2a8e4-79e6-41c6-94dc-92a5d3d7d06a}, !- Space Name
  Surface,                                !- Outside Boundary Condition
  {92abf3e4-be07-4a26-81b8-87cf1b1e54b2}, !- Outside Boundary Condition Object
  NoSun,                                  !- Sun Exposure
  NoWind,                                 !- Wind Exposure
  ,                                       !- View Factor to Ground
  ,                                       !- Number of Vertices
  6.46578440716979, -12.9315688143396, 2.4384, !- X,Y,Z Vertex 1 {m}
  6.46578440716979, 0, 2.4384,            !- X,Y,Z Vertex 2 {m}
  0, 0, 2.4384,                           !- X,Y,Z Vertex 3 {m}
  0, -12.9315688143396, 2.4384;           !- X,Y,Z Vertex 4 {m}

OS:SpaceType,
  {0de4d630-3d25-467f-b7dc-53292cc60b09}, !- Handle
  Space Type 1,                           !- Name
  ,                                       !- Default Construction Set Name
  ,                                       !- Default Schedule Set Name
  ,                                       !- Group Rendering Name
  ,                                       !- Design Specification Outdoor Air Object Name
  ,                                       !- Standards Building Type
  living;                                 !- Standards Space Type

OS:ThermalZone,
  {3bd3857e-f2e3-4cd9-8a43-4a00250d92a7}, !- Handle
  living zone|unit 2,                     !- Name
  ,                                       !- Multiplier
  ,                                       !- Ceiling Height {m}
  ,                                       !- Volume {m3}
  ,                                       !- Floor Area {m2}
  ,                                       !- Zone Inside Convection Algorithm
  ,                                       !- Zone Outside Convection Algorithm
  ,                                       !- Zone Conditioning Equipment List Name
  {c09d7f3e-fdfb-4e29-a8d5-3ead0cc0fd99}, !- Zone Air Inlet Port List
  {71d26b0f-593b-45a0-be94-82207cb0df55}, !- Zone Air Exhaust Port List
  {43ad87db-870a-432a-91dd-391ba368bb5a}, !- Zone Air Node Name
  ,                                       !- Zone Return Air Node Name
  ,                                       !- Primary Daylighting Control Name
  ,                                       !- Fraction of Zone Controlled by Primary Daylighting Control
  ,                                       !- Secondary Daylighting Control Name
  ,                                       !- Fraction of Zone Controlled by Secondary Daylighting Control
  ,                                       !- Illuminance Map Name
  ,                                       !- Group Rendering Name
  ,                                       !- Thermostat Name
  No;                                     !- Use Ideal Air Loads

OS:Node,
  {8ec45e3b-5150-430a-9e4c-2a996480a4d5}, !- Handle
  Node 2,                                 !- Name
  {43ad87db-870a-432a-91dd-391ba368bb5a}, !- Inlet Port
  ;                                       !- Outlet Port

OS:Connection,
  {43ad87db-870a-432a-91dd-391ba368bb5a}, !- Handle
  {2c108219-2e5b-4ee7-b639-32406ea8b32a}, !- Name
  {3bd3857e-f2e3-4cd9-8a43-4a00250d92a7}, !- Source Object
  11,                                     !- Outlet Port
  {8ec45e3b-5150-430a-9e4c-2a996480a4d5}, !- Target Object
  2;                                      !- Inlet Port

OS:PortList,
  {c09d7f3e-fdfb-4e29-a8d5-3ead0cc0fd99}, !- Handle
  {22f4ef25-927e-4b3b-b339-bf7ca2a8d6a9}, !- Name
  {3bd3857e-f2e3-4cd9-8a43-4a00250d92a7}; !- HVAC Component

OS:PortList,
  {71d26b0f-593b-45a0-be94-82207cb0df55}, !- Handle
  {6876bdc5-602a-4a82-a885-17c3d7290832}, !- Name
  {3bd3857e-f2e3-4cd9-8a43-4a00250d92a7}; !- HVAC Component

OS:Sizing:Zone,
  {a2c87ad3-a19a-4fd7-be49-037f246c6766}, !- Handle
  {3bd3857e-f2e3-4cd9-8a43-4a00250d92a7}, !- Zone or ZoneList Name
  SupplyAirTemperature,                   !- Zone Cooling Design Supply Air Temperature Input Method
  14,                                     !- Zone Cooling Design Supply Air Temperature {C}
  11.11,                                  !- Zone Cooling Design Supply Air Temperature Difference {deltaC}
  SupplyAirTemperature,                   !- Zone Heating Design Supply Air Temperature Input Method
  40,                                     !- Zone Heating Design Supply Air Temperature {C}
  11.11,                                  !- Zone Heating Design Supply Air Temperature Difference {deltaC}
  0.0085,                                 !- Zone Cooling Design Supply Air Humidity Ratio {kg-H2O/kg-air}
  0.008,                                  !- Zone Heating Design Supply Air Humidity Ratio {kg-H2O/kg-air}
  ,                                       !- Zone Heating Sizing Factor
  ,                                       !- Zone Cooling Sizing Factor
  DesignDay,                              !- Cooling Design Air Flow Method
  ,                                       !- Cooling Design Air Flow Rate {m3/s}
  ,                                       !- Cooling Minimum Air Flow per Zone Floor Area {m3/s-m2}
  ,                                       !- Cooling Minimum Air Flow {m3/s}
  ,                                       !- Cooling Minimum Air Flow Fraction
  DesignDay,                              !- Heating Design Air Flow Method
  ,                                       !- Heating Design Air Flow Rate {m3/s}
  ,                                       !- Heating Maximum Air Flow per Zone Floor Area {m3/s-m2}
  ,                                       !- Heating Maximum Air Flow {m3/s}
  ,                                       !- Heating Maximum Air Flow Fraction
  ,                                       !- Design Zone Air Distribution Effectiveness in Cooling Mode
  ,                                       !- Design Zone Air Distribution Effectiveness in Heating Mode
  No,                                     !- Account for Dedicated Outdoor Air System
  NeutralSupplyAir,                       !- Dedicated Outdoor Air System Control Strategy
  autosize,                               !- Dedicated Outdoor Air Low Setpoint Temperature for Design {C}
  autosize;                               !- Dedicated Outdoor Air High Setpoint Temperature for Design {C}

OS:ZoneHVAC:EquipmentList,
  {f08308fc-acf0-4616-a252-f7d99971f369}, !- Handle
  Zone HVAC Equipment List 2,             !- Name
  {3bd3857e-f2e3-4cd9-8a43-4a00250d92a7}; !- Thermal Zone

OS:Space,
  {7317e130-4758-4f35-a3d3-2a9ac9b77340}, !- Handle
  living space|unit 2|story 1,            !- Name
  {0de4d630-3d25-467f-b7dc-53292cc60b09}, !- Space Type Name
  ,                                       !- Default Construction Set Name
  ,                                       !- Default Schedule Set Name
  -0,                                     !- Direction of Relative North {deg}
  0,                                      !- X Origin {m}
  0,                                      !- Y Origin {m}
  0,                                      !- Z Origin {m}
  ,                                       !- Building Story Name
  {3bd3857e-f2e3-4cd9-8a43-4a00250d92a7}, !- Thermal Zone Name
  ,                                       !- Part of Total Floor Area
  ,                                       !- Design Specification Outdoor Air Object Name
  {24e58d90-a1cf-4f5b-adf1-27c6904ae28b}; !- Building Unit Name

OS:Surface,
  {217f1d89-ad61-4c9f-aabd-6e028186a887}, !- Handle
  Surface 12,                             !- Name
  Wall,                                   !- Surface Type
  ,                                       !- Construction Name
  {7317e130-4758-4f35-a3d3-2a9ac9b77340}, !- Space Name
  Surface,                                !- Outside Boundary Condition
  {16604c3d-e4ad-45a9-833f-264a5cc10e8e}, !- Outside Boundary Condition Object
  NoSun,                                  !- Sun Exposure
  NoWind,                                 !- Wind Exposure
  ,                                       !- View Factor to Ground
  ,                                       !- Number of Vertices
  6.46578440716979, 0, 2.4384,            !- X,Y,Z Vertex 1 {m}
  6.46578440716979, 0, 0,                 !- X,Y,Z Vertex 2 {m}
  6.46578440716979, -12.9315688143396, 0, !- X,Y,Z Vertex 3 {m}
  6.46578440716979, -12.9315688143396, 2.4384; !- X,Y,Z Vertex 4 {m}

OS:Surface,
  {00d372c4-264e-4d40-b26a-21fb60bfe98a}, !- Handle
  Surface 13,                             !- Name
  Wall,                                   !- Surface Type
  ,                                       !- Construction Name
  {7317e130-4758-4f35-a3d3-2a9ac9b77340}, !- Space Name
  Surface,                                !- Outside Boundary Condition
  {75e40698-d3eb-432a-b36a-ba7c0f6f7d84}, !- Outside Boundary Condition Object
  NoSun,                                  !- Sun Exposure
  NoWind,                                 !- Wind Exposure
  ,                                       !- View Factor to Ground
  ,                                       !- Number of Vertices
  12.9315688143396, -12.9315688143396, 2.4384, !- X,Y,Z Vertex 1 {m}
  12.9315688143396, -12.9315688143396, 0, !- X,Y,Z Vertex 2 {m}
  12.9315688143396, 0, 0,                 !- X,Y,Z Vertex 3 {m}
  12.9315688143396, 0, 2.4384;            !- X,Y,Z Vertex 4 {m}

OS:Surface,
  {0bb3b998-2868-4c04-b246-1e0e1023c237}, !- Handle
  Surface 14,                             !- Name
  Wall,                                   !- Surface Type
  ,                                       !- Construction Name
  {7317e130-4758-4f35-a3d3-2a9ac9b77340}, !- Space Name
  Outdoors,                               !- Outside Boundary Condition
  ,                                       !- Outside Boundary Condition Object
  SunExposed,                             !- Sun Exposure
  WindExposed,                            !- Wind Exposure
  ,                                       !- View Factor to Ground
  ,                                       !- Number of Vertices
  12.9315688143396, 0, 2.4384,            !- X,Y,Z Vertex 1 {m}
  12.9315688143396, 0, 0,                 !- X,Y,Z Vertex 2 {m}
  6.46578440716979, 0, 0,                 !- X,Y,Z Vertex 3 {m}
  6.46578440716979, 0, 2.4384;            !- X,Y,Z Vertex 4 {m}

OS:Surface,
  {a198b8b7-63d3-4411-9f68-8016b067e80e}, !- Handle
  Surface 15,                             !- Name
  Floor,                                  !- Surface Type
  ,                                       !- Construction Name
  {7317e130-4758-4f35-a3d3-2a9ac9b77340}, !- Space Name
  Surface,                                !- Outside Boundary Condition
  {f5d668c5-3149-42b1-9d5b-c079b061d89f}, !- Outside Boundary Condition Object
  NoSun,                                  !- Sun Exposure
  NoWind,                                 !- Wind Exposure
  ,                                       !- View Factor to Ground
  ,                                       !- Number of Vertices
  6.46578440716979, -12.9315688143396, 0, !- X,Y,Z Vertex 1 {m}
  6.46578440716979, 0, 0,                 !- X,Y,Z Vertex 2 {m}
  12.9315688143396, 0, 0,                 !- X,Y,Z Vertex 3 {m}
  12.9315688143396, -12.9315688143396, 0; !- X,Y,Z Vertex 4 {m}

OS:Surface,
  {f0f6c6dd-f893-4104-9db0-4d73b3a295b3}, !- Handle
  Surface 16,                             !- Name
  Wall,                                   !- Surface Type
  ,                                       !- Construction Name
  {7317e130-4758-4f35-a3d3-2a9ac9b77340}, !- Space Name
  Outdoors,                               !- Outside Boundary Condition
  ,                                       !- Outside Boundary Condition Object
  SunExposed,                             !- Sun Exposure
  WindExposed,                            !- Wind Exposure
  ,                                       !- View Factor to Ground
  ,                                       !- Number of Vertices
  6.46578440716979, -12.9315688143396, 2.4384, !- X,Y,Z Vertex 1 {m}
  6.46578440716979, -12.9315688143396, 0, !- X,Y,Z Vertex 2 {m}
  12.9315688143396, -12.9315688143396, 0, !- X,Y,Z Vertex 3 {m}
  12.9315688143396, -12.9315688143396, 2.4384; !- X,Y,Z Vertex 4 {m}

OS:Surface,
  {0e0a7d8d-03fb-4d2b-ad56-4979bbc77a1f}, !- Handle
  Surface 17,                             !- Name
  RoofCeiling,                            !- Surface Type
  ,                                       !- Construction Name
  {7317e130-4758-4f35-a3d3-2a9ac9b77340}, !- Space Name
  Surface,                                !- Outside Boundary Condition
  {7f350832-ec22-47ad-86d1-d0c110b879be}, !- Outside Boundary Condition Object
  NoSun,                                  !- Sun Exposure
  NoWind,                                 !- Wind Exposure
  ,                                       !- View Factor to Ground
  ,                                       !- Number of Vertices
  12.9315688143396, -12.9315688143396, 2.4384, !- X,Y,Z Vertex 1 {m}
  12.9315688143396, 0, 2.4384,            !- X,Y,Z Vertex 2 {m}
  6.46578440716979, 0, 2.4384,            !- X,Y,Z Vertex 3 {m}
  6.46578440716979, -12.9315688143396, 2.4384; !- X,Y,Z Vertex 4 {m}

OS:ThermalZone,
  {044b0a1f-6eab-48f8-b48e-4390f8d3c123}, !- Handle
  living zone|unit 3,                     !- Name
  ,                                       !- Multiplier
  ,                                       !- Ceiling Height {m}
  ,                                       !- Volume {m3}
  ,                                       !- Floor Area {m2}
  ,                                       !- Zone Inside Convection Algorithm
  ,                                       !- Zone Outside Convection Algorithm
  ,                                       !- Zone Conditioning Equipment List Name
  {625f0991-34f6-4b79-b2ad-a38521bebfae}, !- Zone Air Inlet Port List
  {7b06f107-ec4a-40ff-9305-88d9118c8c9c}, !- Zone Air Exhaust Port List
  {e8933fa4-1d4c-4fff-98c0-7d22ece818b2}, !- Zone Air Node Name
  ,                                       !- Zone Return Air Node Name
  ,                                       !- Primary Daylighting Control Name