!- NOTE: Auto-generated from /test/osw_files/SFA_4units_1story_FB_UA_3Beds_2Baths_Denver.osw

OS:Version,
  {4eb147c6-63cd-4ad3-b279-643fad36da64}, !- Handle
  2.6.1;                                  !- Version Identifier

OS:Building,
  {c7ae6f10-bfbc-4cda-9045-98722828e06b}, !- Handle
  Building 1,                             !- Name
  ,                                       !- Building Sector Type
  0,                                      !- North Axis {deg}
  ,                                       !- Nominal Floor to Floor Height {m}
  ,                                       !- Space Type Name
  ,                                       !- Default Construction Set Name
  ,                                       !- Default Schedule Set Name
  2,                                      !- Standards Number of Stories
  1,                                      !- Standards Number of Above Ground Stories
  singlefamilyttached,                    !- Standards Building Type
  4;                                      !- Standards Number of Living Units

OS:Facility,
  {f11f923f-8002-493e-ba5f-b1f8ee0490b4}; !- Handle

OS:Site,
  {b4257c7d-ea28-4342-8eb4-fb389d3647fc}, !- Handle
  Denver Intl Ap_CO_USA,                  !- Name
  39.83,                                  !- Latitude {deg}
  -104.65,                                !- Longitude {deg}
  -7,                                     !- Time Zone {hr}
  1650,                                   !- Elevation {m}
  ;                                       !- Terrain

OS:SimulationControl,
  {e97b0018-34d4-432d-9c21-801e515e31c6}, !- Handle
  ,                                       !- Do Zone Sizing Calculation
  ,                                       !- Do System Sizing Calculation
  ,                                       !- Do Plant Sizing Calculation
  No;                                     !- Run Simulation for Sizing Periods

OS:Sizing:Parameters,
  {eed44502-919c-49ec-be58-92eef8eacbf6}, !- Handle
  1.25,                                   !- Heating Sizing Factor
  1.15;                                   !- Cooling Sizing Factor

OS:Timestep,
  {9674332e-83ba-4991-afaf-baac10553edf}, !- Handle
  6;                                      !- Number of Timesteps per Hour

OS:ShadowCalculation,
  {eed5c0f6-8a15-436d-981e-1e9fc6f85831}, !- Handle
  20,                                     !- Calculation Frequency
  200;                                    !- Maximum Figures in Shadow Overlap Calculations

OS:HeatBalanceAlgorithm,
  {83cd0e0a-bf90-41b3-8857-0b8e271cfe46}, !- Handle
  ConductionTransferFunction,             !- Algorithm
  200;                                    !- Surface Temperature Upper Limit {C}

OS:RunPeriod,
  {85022a5b-2079-4c15-b313-b21d7e70a1d9}, !- Handle
  Run Period 1,                           !- Name
  1,                                      !- Begin Month
  1,                                      !- Begin Day of Month
  12,                                     !- End Month
  31,                                     !- End Day of Month
  ,                                       !- Use Weather File Holidays and Special Days
  ,                                       !- Use Weather File Daylight Saving Period
  ,                                       !- Apply Weekend Holiday Rule
  ,                                       !- Use Weather File Rain Indicators
  ,                                       !- Use Weather File Snow Indicators
  ;                                       !- Number of Times Runperiod to be Repeated

OS:LifeCycleCost:Parameters,
  {823e32a9-8458-499b-ad8f-b229630bd368}, !- Handle
  ,                                       !- Analysis Type
  ,                                       !- Discounting Convention
  ,                                       !- Inflation Approach
  ,                                       !- Real Discount Rate
  ,                                       !- Nominal Discount Rate
  ,                                       !- Inflation
  ,                                       !- Base Date Month
  ,                                       !- Base Date Year
  ,                                       !- Service Date Month
  ,                                       !- Service Date Year
  ;                                       !- Length of Study Period in Years

OS:ThermalZone,
  {9a068b00-c6d7-4c63-858c-0224f529fe63}, !- Handle
  living zone,                            !- Name
  ,                                       !- Multiplier
  ,                                       !- Ceiling Height {m}
  ,                                       !- Volume {m3}
  ,                                       !- Floor Area {m2}
  ,                                       !- Zone Inside Convection Algorithm
  ,                                       !- Zone Outside Convection Algorithm
  ,                                       !- Zone Conditioning Equipment List Name
  {90d535a6-ee26-4726-b0e5-1ecaaeb4b489}, !- Zone Air Inlet Port List
  {a5703073-741d-4043-99e5-7776ba66f623}, !- Zone Air Exhaust Port List
  {cc1a30bc-5472-44fa-975e-5fa99241973d}, !- Zone Air Node Name
  {f6742065-e4f6-4820-9524-868369e7f23b}, !- Zone Return Air Port List
  ,                                       !- Primary Daylighting Control Name
  ,                                       !- Fraction of Zone Controlled by Primary Daylighting Control
  ,                                       !- Secondary Daylighting Control Name
  ,                                       !- Fraction of Zone Controlled by Secondary Daylighting Control
  ,                                       !- Illuminance Map Name
  ,                                       !- Group Rendering Name
  ,                                       !- Thermostat Name
  No;                                     !- Use Ideal Air Loads

OS:Node,
  {2dedd3bd-7d60-4fd5-bb13-666d6f3b37b4}, !- Handle
  Node 1,                                 !- Name
  {cc1a30bc-5472-44fa-975e-5fa99241973d}, !- Inlet Port
  ;                                       !- Outlet Port

OS:Connection,
  {cc1a30bc-5472-44fa-975e-5fa99241973d}, !- Handle
  {609074a0-3cbd-43bc-8872-c6e2adc360ba}, !- Name
  {9a068b00-c6d7-4c63-858c-0224f529fe63}, !- Source Object
  11,                                     !- Outlet Port
  {2dedd3bd-7d60-4fd5-bb13-666d6f3b37b4}, !- Target Object
  2;                                      !- Inlet Port

OS:PortList,
  {90d535a6-ee26-4726-b0e5-1ecaaeb4b489}, !- Handle
  {3f274fe3-f111-449c-9455-d59ca92866c2}, !- Name
  {9a068b00-c6d7-4c63-858c-0224f529fe63}; !- HVAC Component

OS:PortList,
  {a5703073-741d-4043-99e5-7776ba66f623}, !- Handle
  {4a211d3a-7efb-4f8e-8890-4ec9eb142459}, !- Name
  {9a068b00-c6d7-4c63-858c-0224f529fe63}; !- HVAC Component

OS:PortList,
  {f6742065-e4f6-4820-9524-868369e7f23b}, !- Handle
  {94a78793-a09e-48d7-9c2d-d9c707ead211}, !- Name
  {9a068b00-c6d7-4c63-858c-0224f529fe63}; !- HVAC Component

OS:Sizing:Zone,
  {adfa79f1-b5cd-4cd1-b5b7-7050703e416e}, !- Handle
  {9a068b00-c6d7-4c63-858c-0224f529fe63}, !- Zone or ZoneList Name
  SupplyAirTemperature,                   !- Zone Cooling Design Supply Air Temperature Input Method
  14,                                     !- Zone Cooling Design Supply Air Temperature {C}
  11.11,                                  !- Zone Cooling Design Supply Air Temperature Difference {deltaC}
  SupplyAirTemperature,                   !- Zone Heating Design Supply Air Temperature Input Method
  40,                                     !- Zone Heating Design Supply Air Temperature {C}
  11.11,                                  !- Zone Heating Design Supply Air Temperature Difference {deltaC}
  0.0085,                                 !- Zone Cooling Design Supply Air Humidity Ratio {kg-H2O/kg-air}
  0.008,                                  !- Zone Heating Design Supply Air Humidity Ratio {kg-H2O/kg-air}
  ,                                       !- Zone Heating Sizing Factor
  ,                                       !- Zone Cooling Sizing Factor
  DesignDay,                              !- Cooling Design Air Flow Method
  ,                                       !- Cooling Design Air Flow Rate {m3/s}
  ,                                       !- Cooling Minimum Air Flow per Zone Floor Area {m3/s-m2}
  ,                                       !- Cooling Minimum Air Flow {m3/s}
  ,                                       !- Cooling Minimum Air Flow Fraction
  DesignDay,                              !- Heating Design Air Flow Method
  ,                                       !- Heating Design Air Flow Rate {m3/s}
  ,                                       !- Heating Maximum Air Flow per Zone Floor Area {m3/s-m2}
  ,                                       !- Heating Maximum Air Flow {m3/s}
  ,                                       !- Heating Maximum Air Flow Fraction
  ,                                       !- Design Zone Air Distribution Effectiveness in Cooling Mode
  ,                                       !- Design Zone Air Distribution Effectiveness in Heating Mode
  No,                                     !- Account for Dedicated Outdoor Air System
  NeutralSupplyAir,                       !- Dedicated Outdoor Air System Control Strategy
  autosize,                               !- Dedicated Outdoor Air Low Setpoint Temperature for Design {C}
  autosize;                               !- Dedicated Outdoor Air High Setpoint Temperature for Design {C}

OS:ZoneHVAC:EquipmentList,
  {4cca8dde-4a09-49e2-a68a-00bcd63c62a9}, !- Handle
  Zone HVAC Equipment List 1,             !- Name
  {9a068b00-c6d7-4c63-858c-0224f529fe63}; !- Thermal Zone

OS:Space,
  {a83fa108-c3a3-4977-be31-98c17ba610df}, !- Handle
  living space,                           !- Name
  {0eee644c-ad46-497c-ab8c-ab77b57071ac}, !- Space Type Name
  ,                                       !- Default Construction Set Name
  ,                                       !- Default Schedule Set Name
  ,                                       !- Direction of Relative North {deg}
  ,                                       !- X Origin {m}
  ,                                       !- Y Origin {m}
  ,                                       !- Z Origin {m}
  ,                                       !- Building Story Name
  {9a068b00-c6d7-4c63-858c-0224f529fe63}, !- Thermal Zone Name
  ,                                       !- Part of Total Floor Area
  ,                                       !- Design Specification Outdoor Air Object Name
  {ad4b88f2-cb63-44cd-b9e2-1989419c8710}; !- Building Unit Name

OS:Surface,
  {13854060-73db-481b-8d01-ba542c2de0d4}, !- Handle
  Surface 1,                              !- Name
  Floor,                                  !- Surface Type
  ,                                       !- Construction Name
  {a83fa108-c3a3-4977-be31-98c17ba610df}, !- Space Name
  Surface,                                !- Outside Boundary Condition
  {e83e4411-bde8-4a51-a2c0-6f181857b56f}, !- Outside Boundary Condition Object
  NoSun,                                  !- Sun Exposure
  NoWind,                                 !- Wind Exposure
  ,                                       !- View Factor to Ground
  ,                                       !- Number of Vertices
  0, -9.144, 0,                           !- X,Y,Z Vertex 1 {m}
  0, 0, 0,                                !- X,Y,Z Vertex 2 {m}
  4.572, 0, 0,                            !- X,Y,Z Vertex 3 {m}
  4.572, -9.144, 0;                       !- X,Y,Z Vertex 4 {m}

OS:Surface,
  {8c421c53-0326-4b24-b6d4-127b220d2865}, !- Handle
  Surface 2,                              !- Name
  Wall,                                   !- Surface Type
  ,                                       !- Construction Name
  {a83fa108-c3a3-4977-be31-98c17ba610df}, !- Space Name
  Outdoors,                               !- Outside Boundary Condition
  ,                                       !- Outside Boundary Condition Object
  SunExposed,                             !- Sun Exposure
  WindExposed,                            !- Wind Exposure
  ,                                       !- View Factor to Ground
  ,                                       !- Number of Vertices
  0, 0, 2.4384,                           !- X,Y,Z Vertex 1 {m}
  0, 0, 0,                                !- X,Y,Z Vertex 2 {m}
  0, -9.144, 0,                           !- X,Y,Z Vertex 3 {m}
  0, -9.144, 2.4384;                      !- X,Y,Z Vertex 4 {m}

OS:Surface,
  {f40b30ad-5a05-4590-bf20-d795e6914115}, !- Handle
  Surface 3,                              !- Name
  Wall,                                   !- Surface Type
  ,                                       !- Construction Name
  {a83fa108-c3a3-4977-be31-98c17ba610df}, !- Space Name
  Outdoors,                               !- Outside Boundary Condition
  ,                                       !- Outside Boundary Condition Object
  SunExposed,                             !- Sun Exposure
  WindExposed,                            !- Wind Exposure
  ,                                       !- View Factor to Ground
  ,                                       !- Number of Vertices
  4.572, 0, 2.4384,                       !- X,Y,Z Vertex 1 {m}
  4.572, 0, 0,                            !- X,Y,Z Vertex 2 {m}
  0, 0, 0,                                !- X,Y,Z Vertex 3 {m}
  0, 0, 2.4384;                           !- X,Y,Z Vertex 4 {m}

OS:Surface,
  {3ea262e3-9311-470c-aa2d-e73f6e769b8a}, !- Handle
  Surface 4,                              !- Name
  Wall,                                   !- Surface Type
  ,                                       !- Construction Name
  {a83fa108-c3a3-4977-be31-98c17ba610df}, !- Space Name
  Surface,                                !- Outside Boundary Condition
  {1b9b9ed5-7a4f-411b-a5b0-db3b62c2a43b}, !- Outside Boundary Condition Object
  NoSun,                                  !- Sun Exposure
  NoWind,                                 !- Wind Exposure
  ,                                       !- View Factor to Ground
  ,                                       !- Number of Vertices
  4.572, -9.144, 2.4384,                  !- X,Y,Z Vertex 1 {m}
  4.572, -9.144, 0,                       !- X,Y,Z Vertex 2 {m}
  4.572, 0, 0,                            !- X,Y,Z Vertex 3 {m}
  4.572, 0, 2.4384;                       !- X,Y,Z Vertex 4 {m}

OS:Surface,
  {9cbb62e3-ea52-4672-a83d-9d35d87beb87}, !- Handle
  Surface 5,                              !- Name
  Wall,                                   !- Surface Type
  ,                                       !- Construction Name
  {a83fa108-c3a3-4977-be31-98c17ba610df}, !- Space Name
  Outdoors,                               !- Outside Boundary Condition
  ,                                       !- Outside Boundary Condition Object
  SunExposed,                             !- Sun Exposure
  WindExposed,                            !- Wind Exposure
  ,                                       !- View Factor to Ground
  ,                                       !- Number of Vertices
  0, -9.144, 2.4384,                      !- X,Y,Z Vertex 1 {m}
  0, -9.144, 0,                           !- X,Y,Z Vertex 2 {m}
  4.572, -9.144, 0,                       !- X,Y,Z Vertex 3 {m}
  4.572, -9.144, 2.4384;                  !- X,Y,Z Vertex 4 {m}

OS:Surface,
  {464afdb3-95d0-4b8b-b564-6c4e87a6bda2}, !- Handle
  Surface 6,                              !- Name
  RoofCeiling,                            !- Surface Type
  ,                                       !- Construction Name
  {a83fa108-c3a3-4977-be31-98c17ba610df}, !- Space Name
  Surface,                                !- Outside Boundary Condition
  {49f36ab5-4a79-47e1-b0ce-3c59b7aa4117}, !- Outside Boundary Condition Object
  NoSun,                                  !- Sun Exposure
  NoWind,                                 !- Wind Exposure
  ,                                       !- View Factor to Ground
  ,                                       !- Number of Vertices
  4.572, -9.144, 2.4384,                  !- X,Y,Z Vertex 1 {m}
  4.572, 0, 2.4384,                       !- X,Y,Z Vertex 2 {m}
  0, 0, 2.4384,                           !- X,Y,Z Vertex 3 {m}
  0, -9.144, 2.4384;                      !- X,Y,Z Vertex 4 {m}

OS:SpaceType,
  {0eee644c-ad46-497c-ab8c-ab77b57071ac}, !- Handle
  Space Type 1,                           !- Name
  ,                                       !- Default Construction Set Name
  ,                                       !- Default Schedule Set Name
  ,                                       !- Group Rendering Name
  ,                                       !- Design Specification Outdoor Air Object Name
  ,                                       !- Standards Building Type
  living;                                 !- Standards Space Type

OS:ThermalZone,
  {4352799e-d6d2-42ef-bc9b-593c8d92125a}, !- Handle
  living zone|unit 2,                     !- Name
  ,                                       !- Multiplier
  ,                                       !- Ceiling Height {m}
  ,                                       !- Volume {m3}
  ,                                       !- Floor Area {m2}
  ,                                       !- Zone Inside Convection Algorithm
  ,                                       !- Zone Outside Convection Algorithm
  ,                                       !- Zone Conditioning Equipment List Name
  {ce655f4e-b5ac-446b-820b-65fd1ab78e69}, !- Zone Air Inlet Port List
  {5279384d-d002-4b00-9c2c-8b3de7a40d73}, !- Zone Air Exhaust Port List
  {3a10432f-df85-4979-ab16-09e460324645}, !- Zone Air Node Name
  {ae0b0f21-6249-435a-b112-9335d72aef75}, !- Zone Return Air Port List
  ,                                       !- Primary Daylighting Control Name
  ,                                       !- Fraction of Zone Controlled by Primary Daylighting Control
  ,                                       !- Secondary Daylighting Control Name
  ,                                       !- Fraction of Zone Controlled by Secondary Daylighting Control
  ,                                       !- Illuminance Map Name
  ,                                       !- Group Rendering Name
  ,                                       !- Thermostat Name
  No;                                     !- Use Ideal Air Loads

OS:Node,
  {b3f22082-11c3-4a66-89f5-53eb7b808fd5}, !- Handle
  Node 2,                                 !- Name
  {3a10432f-df85-4979-ab16-09e460324645}, !- Inlet Port
  ;                                       !- Outlet Port

OS:Connection,
  {3a10432f-df85-4979-ab16-09e460324645}, !- Handle
  {1ed5d7c1-356a-47b2-ae42-edd2e35de2dd}, !- Name
  {4352799e-d6d2-42ef-bc9b-593c8d92125a}, !- Source Object
  11,                                     !- Outlet Port
  {b3f22082-11c3-4a66-89f5-53eb7b808fd5}, !- Target Object
  2;                                      !- Inlet Port

OS:PortList,
  {ce655f4e-b5ac-446b-820b-65fd1ab78e69}, !- Handle
  {18c61f64-ea5e-43d2-9ce0-e53f4b0f86ee}, !- Name
  {4352799e-d6d2-42ef-bc9b-593c8d92125a}; !- HVAC Component

OS:PortList,
  {5279384d-d002-4b00-9c2c-8b3de7a40d73}, !- Handle
  {831c634b-0aee-4ad4-a237-33c939948ae4}, !- Name
  {4352799e-d6d2-42ef-bc9b-593c8d92125a}; !- HVAC Component

OS:PortList,
  {ae0b0f21-6249-435a-b112-9335d72aef75}, !- Handle
  {4e0ea17e-5fc4-4d3c-a024-620e051dc5bf}, !- Name
  {4352799e-d6d2-42ef-bc9b-593c8d92125a}; !- HVAC Component

OS:Sizing:Zone,
  {e86ef91d-9f26-41cd-b742-0e973d0df249}, !- Handle
  {4352799e-d6d2-42ef-bc9b-593c8d92125a}, !- Zone or ZoneList Name
  SupplyAirTemperature,                   !- Zone Cooling Design Supply Air Temperature Input Method
  14,                                     !- Zone Cooling Design Supply Air Temperature {C}
  11.11,                                  !- Zone Cooling Design Supply Air Temperature Difference {deltaC}
  SupplyAirTemperature,                   !- Zone Heating Design Supply Air Temperature Input Method
  40,                                     !- Zone Heating Design Supply Air Temperature {C}
  11.11,                                  !- Zone Heating Design Supply Air Temperature Difference {deltaC}
  0.0085,                                 !- Zone Cooling Design Supply Air Humidity Ratio {kg-H2O/kg-air}
  0.008,                                  !- Zone Heating Design Supply Air Humidity Ratio {kg-H2O/kg-air}
  ,                                       !- Zone Heating Sizing Factor
  ,                                       !- Zone Cooling Sizing Factor
  DesignDay,                              !- Cooling Design Air Flow Method
  ,                                       !- Cooling Design Air Flow Rate {m3/s}
  ,                                       !- Cooling Minimum Air Flow per Zone Floor Area {m3/s-m2}
  ,                                       !- Cooling Minimum Air Flow {m3/s}
  ,                                       !- Cooling Minimum Air Flow Fraction
  DesignDay,                              !- Heating Design Air Flow Method
  ,                                       !- Heating Design Air Flow Rate {m3/s}
  ,                                       !- Heating Maximum Air Flow per Zone Floor Area {m3/s-m2}
  ,                                       !- Heating Maximum Air Flow {m3/s}
  ,                                       !- Heating Maximum Air Flow Fraction
  ,                                       !- Design Zone Air Distribution Effectiveness in Cooling Mode
  ,                                       !- Design Zone Air Distribution Effectiveness in Heating Mode
  No,                                     !- Account for Dedicated Outdoor Air System
  NeutralSupplyAir,                       !- Dedicated Outdoor Air System Control Strategy
  autosize,                               !- Dedicated Outdoor Air Low Setpoint Temperature for Design {C}
  autosize;                               !- Dedicated Outdoor Air High Setpoint Temperature for Design {C}

OS:ZoneHVAC:EquipmentList,
  {f3f380da-ed13-4cf1-a48d-4dffd2df9f68}, !- Handle
  Zone HVAC Equipment List 2,             !- Name
  {4352799e-d6d2-42ef-bc9b-593c8d92125a}; !- Thermal Zone

OS:Space,
  {62b80409-5b2c-4625-a9e7-98d8669f6987}, !- Handle
  living space|unit 2|story 1,            !- Name
  {0eee644c-ad46-497c-ab8c-ab77b57071ac}, !- Space Type Name
  ,                                       !- Default Construction Set Name
  ,                                       !- Default Schedule Set Name
  -0,                                     !- Direction of Relative North {deg}
  0,                                      !- X Origin {m}
  0,                                      !- Y Origin {m}
  0,                                      !- Z Origin {m}
  ,                                       !- Building Story Name
  {4352799e-d6d2-42ef-bc9b-593c8d92125a}, !- Thermal Zone Name
  ,                                       !- Part of Total Floor Area
  ,                                       !- Design Specification Outdoor Air Object Name
  {6ed43eb0-3480-41df-908d-0800c243aef5}; !- Building Unit Name

OS:Surface,
  {1cb31e01-2ef7-475f-ba80-75746592beb1}, !- Handle
  Surface 12,                             !- Name
  RoofCeiling,                            !- Surface Type
  ,                                       !- Construction Name
  {62b80409-5b2c-4625-a9e7-98d8669f6987}, !- Space Name
  Surface,                                !- Outside Boundary Condition
  {167ef48e-6164-4b4c-9dba-266432603215}, !- Outside Boundary Condition Object
  NoSun,                                  !- Sun Exposure
  NoWind,                                 !- Wind Exposure
  ,                                       !- View Factor to Ground
  ,                                       !- Number of Vertices
  9.144, -9.144, 2.4384,                  !- X,Y,Z Vertex 1 {m}
  9.144, 0, 2.4384,                       !- X,Y,Z Vertex 2 {m}
  4.572, 0, 2.4384,                       !- X,Y,Z Vertex 3 {m}
  4.572, -9.144, 2.4384;                  !- X,Y,Z Vertex 4 {m}

OS:Surface,
  {4e98e6bc-7a5b-4d92-8ef6-c0783a09dc56}, !- Handle
  Surface 13,                             !- Name
  Floor,                                  !- Surface Type
  ,                                       !- Construction Name
  {62b80409-5b2c-4625-a9e7-98d8669f6987}, !- Space Name
  Surface,                                !- Outside Boundary Condition
  {91adefd4-85c0-4e2c-b8eb-596e2d024e12}, !- Outside Boundary Condition Object
  NoSun,                                  !- Sun Exposure
  NoWind,                                 !- Wind Exposure
  ,                                       !- View Factor to Ground
  ,                                       !- Number of Vertices
  4.572, -9.144, 0,                       !- X,Y,Z Vertex 1 {m}
  4.572, 0, 0,                            !- X,Y,Z Vertex 2 {m}
  9.144, 0, 0,                            !- X,Y,Z Vertex 3 {m}
  9.144, -9.144, 0;                       !- X,Y,Z Vertex 4 {m}

OS:Surface,
  {71d44121-51e1-4fa6-93f1-a80ce2e30cb8}, !- Handle
  Surface 14,                             !- Name
  Wall,                                   !- Surface Type
  ,                                       !- Construction Name
  {62b80409-5b2c-4625-a9e7-98d8669f6987}, !- Space Name
  Outdoors,                               !- Outside Boundary Condition
  ,                                       !- Outside Boundary Condition Object
  SunExposed,                             !- Sun Exposure
  WindExposed,                            !- Wind Exposure
  ,                                       !- View Factor to Ground
  ,                                       !- Number of Vertices
  9.144, 0, 2.4384,                       !- X,Y,Z Vertex 1 {m}
  9.144, 0, 0,                            !- X,Y,Z Vertex 2 {m}
  4.572, 0, 0,                            !- X,Y,Z Vertex 3 {m}
  4.572, 0, 2.4384;                       !- X,Y,Z Vertex 4 {m}

OS:Surface,
  {1b9b9ed5-7a4f-411b-a5b0-db3b62c2a43b}, !- Handle
  Surface 15,                             !- Name
  Wall,                                   !- Surface Type
  ,                                       !- Construction Name
  {62b80409-5b2c-4625-a9e7-98d8669f6987}, !- Space Name
  Surface,                                !- Outside Boundary Condition
  {3ea262e3-9311-470c-aa2d-e73f6e769b8a}, !- Outside Boundary Condition Object
  NoSun,                                  !- Sun Exposure
  NoWind,                                 !- Wind Exposure
  ,                                       !- View Factor to Ground
  ,                                       !- Number of Vertices
  4.572, 0, 2.4384,                       !- X,Y,Z Vertex 1 {m}
  4.572, 0, 0,                            !- X,Y,Z Vertex 2 {m}
  4.572, -9.144, 0,                       !- X,Y,Z Vertex 3 {m}
  4.572, -9.144, 2.4384;                  !- X,Y,Z Vertex 4 {m}

OS:Surface,
  {705be94a-e80f-498c-9bf1-87a90d16dd5d}, !- Handle
  Surface 16,                             !- Name
  Wall,                                   !- Surface Type
  ,                                       !- Construction Name
  {62b80409-5b2c-4625-a9e7-98d8669f6987}, !- Space Name
  Surface,                                !- Outside Boundary Condition
  {90c24991-b4cb-4fae-816d-e0b4cc027c47}, !- Outside Boundary Condition Object
  NoSun,                                  !- Sun Exposure
  NoWind,                                 !- Wind Exposure
  ,                                       !- View Factor to Ground
  ,                                       !- Number of Vertices
  9.144, -9.144, 2.4384,                  !- X,Y,Z Vertex 1 {m}
  9.144, -9.144, 0,                       !- X,Y,Z Vertex 2 {m}
  9.144, 0, 0,                            !- X,Y,Z Vertex 3 {m}
  9.144, 0, 2.4384;                       !- X,Y,Z Vertex 4 {m}

OS:Surface,
  {b3c74cb1-87ca-4be7-9cf3-fa4d00971858}, !- Handle
  Surface 17,                             !- Name
  Wall,                                   !- Surface Type
  ,                                       !- Construction Name
  {62b80409-5b2c-4625-a9e7-98d8669f6987}, !- Space Name
  Outdoors,                               !- Outside Boundary Condition
  ,                                       !- Outside Boundary Condition Object
  SunExposed,                             !- Sun Exposure
  WindExposed,                            !- Wind Exposure
  ,                                       !- View Factor to Ground
  ,                                       !- Number of Vertices
  4.572, -9.144, 2.4384,                  !- X,Y,Z Vertex 1 {m}
  4.572, -9.144, 0,                       !- X,Y,Z Vertex 2 {m}
  9.144, -9.144, 0,                       !- X,Y,Z Vertex 3 {m}
  9.144, -9.144, 2.4384;                  !- X,Y,Z Vertex 4 {m}

OS:ThermalZone,
  {45a84430-dcf5-4d88-a907-2e387670608d}, !- Handle
  living zone|unit 3,                     !- Name
  ,                                       !- Multiplier
  ,                                       !- Ceiling Height {m}
  ,                                       !- Volume {m3}
  ,                                       !- Floor Area {m2}
  ,                                       !- Zone Inside Convection Algorithm
  ,                                       !- Zone Outside Convection Algorithm
  ,                                       !- Zone Conditioning Equipment List Name
  {20395d4f-69b4-4b8a-a2d3-0c6d575bf94b}, !- Zone Air Inlet Port List
  {dbbad992-d10f-43a7-aa94-9343018fb368}, !- Zone Air Exhaust Port List
  {b53d6ab0-7357-44d1-b21b-73fec14e68c0}, !- Zone Air Node Name
  {d59d7309-cf2b-46fd-94f4-2ea5943f8691}, !- Zone Return Air Port List
  ,                                       !- Primary Daylighting Control Name
  ,                                       !- Fraction of Zone Controlled by Primary Daylighting Control
  ,                                       !- Secondary Daylighting Control Name
  ,                                       !- Fraction of Zone Controlled by Secondary Daylighting Control