!- NOTE: Auto-generated from /test/osw_files/SFA_4units_1story_SL_UA_3Beds_2Baths_Denver_Furnace_NoSetpoints.osw

OS:Version,
  {2833de3f-1278-4ae4-86b3-5a9e6cc9b119}, !- Handle
  2.6.2;                                  !- Version Identifier

OS:Building,
  {d51d469e-e4f9-4313-83d3-93e80b7c2780}, !- Handle
  Building 1,                             !- Name
  ,                                       !- Building Sector Type
  0,                                      !- North Axis {deg}
  ,                                       !- Nominal Floor to Floor Height {m}
  ,                                       !- Space Type Name
  ,                                       !- Default Construction Set Name
  ,                                       !- Default Schedule Set Name
  1,                                      !- Standards Number of Stories
  1,                                      !- Standards Number of Above Ground Stories
  singlefamilyattached,                   !- Standards Building Type
  4;                                      !- Standards Number of Living Units

OS:Facility,
  {7ff3d862-2ce3-45bf-ba48-104d59901a5a}; !- Handle

OS:Site,
  {64cf8994-23f3-4c10-8de9-84fcee0b5f68}, !- Handle
  Denver Intl Ap_CO_USA,                  !- Name
  39.83,                                  !- Latitude {deg}
  -104.65,                                !- Longitude {deg}
  -7,                                     !- Time Zone {hr}
  1650,                                   !- Elevation {m}
  ;                                       !- Terrain

OS:SimulationControl,
  {9efbdccb-2296-4737-bd09-f79d0fbbbc06}, !- Handle
  ,                                       !- Do Zone Sizing Calculation
  ,                                       !- Do System Sizing Calculation
  ,                                       !- Do Plant Sizing Calculation
  No;                                     !- Run Simulation for Sizing Periods

OS:Sizing:Parameters,
  {419e85df-1236-49a1-b023-c4fb01e756f8}, !- Handle
  1.25,                                   !- Heating Sizing Factor
  1.15;                                   !- Cooling Sizing Factor

OS:Timestep,
  {61afab0b-c7a7-448c-8e9e-d2bc837b92db}, !- Handle
  6;                                      !- Number of Timesteps per Hour

OS:ShadowCalculation,
  {84dbd153-3746-4610-8ad6-3d8d2c5bd5e2}, !- Handle
  20,                                     !- Calculation Frequency
  200;                                    !- Maximum Figures in Shadow Overlap Calculations

OS:HeatBalanceAlgorithm,
  {0f5c783e-df65-4bcf-8231-4b20648d2f18}, !- Handle
  ConductionTransferFunction,             !- Algorithm
  200;                                    !- Surface Temperature Upper Limit {C}

OS:RunPeriod,
  {1fb78daf-8e03-4156-b478-8b9d546d5aa2}, !- Handle
  Run Period 1,                           !- Name
  1,                                      !- Begin Month
  1,                                      !- Begin Day of Month
  12,                                     !- End Month
  31,                                     !- End Day of Month
  ,                                       !- Use Weather File Holidays and Special Days
  ,                                       !- Use Weather File Daylight Saving Period
  ,                                       !- Apply Weekend Holiday Rule
  ,                                       !- Use Weather File Rain Indicators
  ,                                       !- Use Weather File Snow Indicators
  ;                                       !- Number of Times Runperiod to be Repeated

OS:LifeCycleCost:Parameters,
  {69339064-7de2-4076-ab74-acc7cc10a95d}, !- Handle
  ,                                       !- Analysis Type
  ,                                       !- Discounting Convention
  ,                                       !- Inflation Approach
  ,                                       !- Real Discount Rate
  ,                                       !- Nominal Discount Rate
  ,                                       !- Inflation
  ,                                       !- Base Date Month
  ,                                       !- Base Date Year
  ,                                       !- Service Date Month
  ,                                       !- Service Date Year
  ;                                       !- Length of Study Period in Years

OS:ThermalZone,
  {93c27ee3-72d7-43e4-9feb-a1ad9fcadc1a}, !- Handle
  living zone,                            !- Name
  ,                                       !- Multiplier
  ,                                       !- Ceiling Height {m}
  ,                                       !- Volume {m3}
  ,                                       !- Floor Area {m2}
  ,                                       !- Zone Inside Convection Algorithm
  ,                                       !- Zone Outside Convection Algorithm
  ,                                       !- Zone Conditioning Equipment List Name
  {2b138b9a-9b54-4f2a-8ebd-326c1cae1094}, !- Zone Air Inlet Port List
  {825c2940-1d46-4499-9a4f-494f692a1e7f}, !- Zone Air Exhaust Port List
  {0793479b-8902-4434-8f33-f1c87daa69b5}, !- Zone Air Node Name
  {0310ee6a-9846-4219-80dd-1ce4acdb5868}, !- Zone Return Air Port List
  ,                                       !- Primary Daylighting Control Name
  ,                                       !- Fraction of Zone Controlled by Primary Daylighting Control
  ,                                       !- Secondary Daylighting Control Name
  ,                                       !- Fraction of Zone Controlled by Secondary Daylighting Control
  ,                                       !- Illuminance Map Name
  ,                                       !- Group Rendering Name
  ,                                       !- Thermostat Name
  No;                                     !- Use Ideal Air Loads

OS:Node,
  {7b444de2-aadd-4bac-91d5-75d30a36f187}, !- Handle
  Node 1,                                 !- Name
  {0793479b-8902-4434-8f33-f1c87daa69b5}, !- Inlet Port
  ;                                       !- Outlet Port

OS:Connection,
  {0793479b-8902-4434-8f33-f1c87daa69b5}, !- Handle
  {bdf93fa7-72f0-43a4-8818-4a559dc34ff0}, !- Name
  {93c27ee3-72d7-43e4-9feb-a1ad9fcadc1a}, !- Source Object
  11,                                     !- Outlet Port
  {7b444de2-aadd-4bac-91d5-75d30a36f187}, !- Target Object
  2;                                      !- Inlet Port

OS:PortList,
  {2b138b9a-9b54-4f2a-8ebd-326c1cae1094}, !- Handle
  {c9529d61-dcdb-44b0-b975-8d422af83273}, !- Name
  {93c27ee3-72d7-43e4-9feb-a1ad9fcadc1a}, !- HVAC Component
  {954457c4-8aaa-4ec7-ba10-608d0f6d86fe}; !- Port 1

OS:PortList,
  {825c2940-1d46-4499-9a4f-494f692a1e7f}, !- Handle
  {57f57c14-366d-48fd-afc0-271670501e29}, !- Name
  {93c27ee3-72d7-43e4-9feb-a1ad9fcadc1a}; !- HVAC Component

OS:PortList,
  {0310ee6a-9846-4219-80dd-1ce4acdb5868}, !- Handle
  {1d52c54e-39ff-4870-a020-b17a6233ea77}, !- Name
  {93c27ee3-72d7-43e4-9feb-a1ad9fcadc1a}, !- HVAC Component
  {b7a32a60-5243-4e73-90b0-0758b6cc1d18}; !- Port 1

OS:Sizing:Zone,
  {0be7697c-bb93-453d-9ace-8551f0e33fe9}, !- Handle
  {93c27ee3-72d7-43e4-9feb-a1ad9fcadc1a}, !- Zone or ZoneList Name
  SupplyAirTemperature,                   !- Zone Cooling Design Supply Air Temperature Input Method
  14,                                     !- Zone Cooling Design Supply Air Temperature {C}
  11.11,                                  !- Zone Cooling Design Supply Air Temperature Difference {deltaC}
  SupplyAirTemperature,                   !- Zone Heating Design Supply Air Temperature Input Method
  40,                                     !- Zone Heating Design Supply Air Temperature {C}
  11.11,                                  !- Zone Heating Design Supply Air Temperature Difference {deltaC}
  0.0085,                                 !- Zone Cooling Design Supply Air Humidity Ratio {kg-H2O/kg-air}
  0.008,                                  !- Zone Heating Design Supply Air Humidity Ratio {kg-H2O/kg-air}
  ,                                       !- Zone Heating Sizing Factor
  ,                                       !- Zone Cooling Sizing Factor
  DesignDay,                              !- Cooling Design Air Flow Method
  ,                                       !- Cooling Design Air Flow Rate {m3/s}
  ,                                       !- Cooling Minimum Air Flow per Zone Floor Area {m3/s-m2}
  ,                                       !- Cooling Minimum Air Flow {m3/s}
  ,                                       !- Cooling Minimum Air Flow Fraction
  DesignDay,                              !- Heating Design Air Flow Method
  ,                                       !- Heating Design Air Flow Rate {m3/s}
  ,                                       !- Heating Maximum Air Flow per Zone Floor Area {m3/s-m2}
  ,                                       !- Heating Maximum Air Flow {m3/s}
  ,                                       !- Heating Maximum Air Flow Fraction
  ,                                       !- Design Zone Air Distribution Effectiveness in Cooling Mode
  ,                                       !- Design Zone Air Distribution Effectiveness in Heating Mode
  No,                                     !- Account for Dedicated Outdoor Air System
  NeutralSupplyAir,                       !- Dedicated Outdoor Air System Control Strategy
  autosize,                               !- Dedicated Outdoor Air Low Setpoint Temperature for Design {C}
  autosize;                               !- Dedicated Outdoor Air High Setpoint Temperature for Design {C}

OS:ZoneHVAC:EquipmentList,
  {9f5d5794-df4f-4c77-becf-8e54b54ef48c}, !- Handle
  Zone HVAC Equipment List 1,             !- Name
  {93c27ee3-72d7-43e4-9feb-a1ad9fcadc1a}, !- Thermal Zone
  UniformLoad,                            !- Load Distribution Scheme
  {37be2fce-f952-4405-b853-916b5a6a4fad}, !- Zone Equipment 1
  1,                                      !- Zone Equipment Cooling Sequence 1
  1;                                      !- Zone Equipment Heating or No-Load Sequence 1

OS:Space,
  {562fb276-c8ca-448b-988b-6a32e4bccbab}, !- Handle
  living space,                           !- Name
  {3ec645a7-2d9f-4a14-978e-e98ab54984cf}, !- Space Type Name
  ,                                       !- Default Construction Set Name
  ,                                       !- Default Schedule Set Name
  ,                                       !- Direction of Relative North {deg}
  ,                                       !- X Origin {m}
  ,                                       !- Y Origin {m}
  ,                                       !- Z Origin {m}
  ,                                       !- Building Story Name
  {93c27ee3-72d7-43e4-9feb-a1ad9fcadc1a}, !- Thermal Zone Name
  ,                                       !- Part of Total Floor Area
  ,                                       !- Design Specification Outdoor Air Object Name
  {ac17aa79-d06a-4e65-b570-4d56f9960d30}; !- Building Unit Name

OS:Surface,
  {5f297391-1faa-4a11-aeff-d5fe760e9d16}, !- Handle
  Surface 1,                              !- Name
  Floor,                                  !- Surface Type
  ,                                       !- Construction Name
  {562fb276-c8ca-448b-988b-6a32e4bccbab}, !- Space Name
  Foundation,                             !- Outside Boundary Condition
  ,                                       !- Outside Boundary Condition Object
  NoSun,                                  !- Sun Exposure
  NoWind,                                 !- Wind Exposure
  ,                                       !- View Factor to Ground
  ,                                       !- Number of Vertices
  0, -12.9315688143396, 0,                !- X,Y,Z Vertex 1 {m}
  0, 0, 0,                                !- X,Y,Z Vertex 2 {m}
  6.46578440716979, 0, 0,                 !- X,Y,Z Vertex 3 {m}
  6.46578440716979, -12.9315688143396, 0; !- X,Y,Z Vertex 4 {m}

OS:Surface,
  {c4a3883c-34ff-47ac-904d-9b1dc4e2e0c7}, !- Handle
  Surface 2,                              !- Name
  Wall,                                   !- Surface Type
  ,                                       !- Construction Name
  {562fb276-c8ca-448b-988b-6a32e4bccbab}, !- Space Name
  Outdoors,                               !- Outside Boundary Condition
  ,                                       !- Outside Boundary Condition Object
  SunExposed,                             !- Sun Exposure
  WindExposed,                            !- Wind Exposure
  ,                                       !- View Factor to Ground
  ,                                       !- Number of Vertices
  0, 0, 2.4384,                           !- X,Y,Z Vertex 1 {m}
  0, 0, 0,                                !- X,Y,Z Vertex 2 {m}
  0, -12.9315688143396, 0,                !- X,Y,Z Vertex 3 {m}
  0, -12.9315688143396, 2.4384;           !- X,Y,Z Vertex 4 {m}

OS:Surface,
  {393b13d3-8869-4fed-bd32-91f4a3dd881b}, !- Handle
  Surface 3,                              !- Name
  Wall,                                   !- Surface Type
  ,                                       !- Construction Name
  {562fb276-c8ca-448b-988b-6a32e4bccbab}, !- Space Name
  Outdoors,                               !- Outside Boundary Condition
  ,                                       !- Outside Boundary Condition Object
  SunExposed,                             !- Sun Exposure
  WindExposed,                            !- Wind Exposure
  ,                                       !- View Factor to Ground
  ,                                       !- Number of Vertices
  6.46578440716979, 0, 2.4384,            !- X,Y,Z Vertex 1 {m}
  6.46578440716979, 0, 0,                 !- X,Y,Z Vertex 2 {m}
  0, 0, 0,                                !- X,Y,Z Vertex 3 {m}
  0, 0, 2.4384;                           !- X,Y,Z Vertex 4 {m}

OS:Surface,
  {14eeb8da-74d6-4301-9df5-aa88c3bfffd1}, !- Handle
  Surface 4,                              !- Name
  Wall,                                   !- Surface Type
  ,                                       !- Construction Name
  {562fb276-c8ca-448b-988b-6a32e4bccbab}, !- Space Name
  Surface,                                !- Outside Boundary Condition
  {12d531c7-5f19-401f-b5bc-c82af3afe859}, !- Outside Boundary Condition Object
  NoSun,                                  !- Sun Exposure
  NoWind,                                 !- Wind Exposure
  ,                                       !- View Factor to Ground
  ,                                       !- Number of Vertices
  6.46578440716979, -12.9315688143396, 2.4384, !- X,Y,Z Vertex 1 {m}
  6.46578440716979, -12.9315688143396, 0, !- X,Y,Z Vertex 2 {m}
  6.46578440716979, 0, 0,                 !- X,Y,Z Vertex 3 {m}
  6.46578440716979, 0, 2.4384;            !- X,Y,Z Vertex 4 {m}

OS:Surface,
  {e678e1ad-fa05-4837-9bdd-00a970abb601}, !- Handle
  Surface 5,                              !- Name
  Wall,                                   !- Surface Type
  ,                                       !- Construction Name
  {562fb276-c8ca-448b-988b-6a32e4bccbab}, !- Space Name
  Outdoors,                               !- Outside Boundary Condition
  ,                                       !- Outside Boundary Condition Object
  SunExposed,                             !- Sun Exposure
  WindExposed,                            !- Wind Exposure
  ,                                       !- View Factor to Ground
  ,                                       !- Number of Vertices
  0, -12.9315688143396, 2.4384,           !- X,Y,Z Vertex 1 {m}
  0, -12.9315688143396, 0,                !- X,Y,Z Vertex 2 {m}
  6.46578440716979, -12.9315688143396, 0, !- X,Y,Z Vertex 3 {m}
  6.46578440716979, -12.9315688143396, 2.4384; !- X,Y,Z Vertex 4 {m}

OS:Surface,
  {f476cff9-d23b-4ae4-8ee6-65357adc2a06}, !- Handle
  Surface 6,                              !- Name
  RoofCeiling,                            !- Surface Type
  ,                                       !- Construction Name
  {562fb276-c8ca-448b-988b-6a32e4bccbab}, !- Space Name
  Surface,                                !- Outside Boundary Condition
  {85e71049-b3bb-4c4f-bc98-900696c9f1d6}, !- Outside Boundary Condition Object
  NoSun,                                  !- Sun Exposure
  NoWind,                                 !- Wind Exposure
  ,                                       !- View Factor to Ground
  ,                                       !- Number of Vertices
  6.46578440716979, -12.9315688143396, 2.4384, !- X,Y,Z Vertex 1 {m}
  6.46578440716979, 0, 2.4384,            !- X,Y,Z Vertex 2 {m}
  0, 0, 2.4384,                           !- X,Y,Z Vertex 3 {m}
  0, -12.9315688143396, 2.4384;           !- X,Y,Z Vertex 4 {m}

OS:SpaceType,
  {3ec645a7-2d9f-4a14-978e-e98ab54984cf}, !- Handle
  Space Type 1,                           !- Name
  ,                                       !- Default Construction Set Name
  ,                                       !- Default Schedule Set Name
  ,                                       !- Group Rendering Name
  ,                                       !- Design Specification Outdoor Air Object Name
  ,                                       !- Standards Building Type
  living;                                 !- Standards Space Type

OS:ThermalZone,
  {76008c6e-a56e-4bbd-b8e6-87a9801a1143}, !- Handle
  living zone|unit 2,                     !- Name
  ,                                       !- Multiplier
  ,                                       !- Ceiling Height {m}
  ,                                       !- Volume {m3}
  ,                                       !- Floor Area {m2}
  ,                                       !- Zone Inside Convection Algorithm
  ,                                       !- Zone Outside Convection Algorithm
  ,                                       !- Zone Conditioning Equipment List Name
  {f31d8d93-e111-4959-85ad-81c3d39baf04}, !- Zone Air Inlet Port List
  {ebb624fc-9496-4869-aa22-bed2d1e9e2b8}, !- Zone Air Exhaust Port List
  {4b5220de-c963-4a2e-a72b-1937e43253dc}, !- Zone Air Node Name
  {2aaa9a8d-b2b7-49cf-ab2f-7c0cc0eedb7f}, !- Zone Return Air Port List
  ,                                       !- Primary Daylighting Control Name
  ,                                       !- Fraction of Zone Controlled by Primary Daylighting Control
  ,                                       !- Secondary Daylighting Control Name
  ,                                       !- Fraction of Zone Controlled by Secondary Daylighting Control
  ,                                       !- Illuminance Map Name
  ,                                       !- Group Rendering Name
  ,                                       !- Thermostat Name
  No;                                     !- Use Ideal Air Loads

OS:Node,
  {675cd09a-c2b8-408d-8a0e-0c96ec03d6ee}, !- Handle
  Node 2,                                 !- Name
  {4b5220de-c963-4a2e-a72b-1937e43253dc}, !- Inlet Port
  ;                                       !- Outlet Port

OS:Connection,
  {4b5220de-c963-4a2e-a72b-1937e43253dc}, !- Handle
  {842a7501-9f9a-4db7-878b-9875ae788810}, !- Name
  {76008c6e-a56e-4bbd-b8e6-87a9801a1143}, !- Source Object
  11,                                     !- Outlet Port
  {675cd09a-c2b8-408d-8a0e-0c96ec03d6ee}, !- Target Object
  2;                                      !- Inlet Port

OS:PortList,
  {f31d8d93-e111-4959-85ad-81c3d39baf04}, !- Handle
  {41af10b6-90bd-4d6f-ad52-0c70c8ad1c2d}, !- Name
  {76008c6e-a56e-4bbd-b8e6-87a9801a1143}, !- HVAC Component
  {08310fc2-801a-4660-9ec6-8c34d0b08aa8}; !- Port 1

OS:PortList,
  {ebb624fc-9496-4869-aa22-bed2d1e9e2b8}, !- Handle
  {7d91ceb5-876f-4daa-a2f8-2ab86cae6360}, !- Name
  {76008c6e-a56e-4bbd-b8e6-87a9801a1143}; !- HVAC Component

OS:PortList,
  {2aaa9a8d-b2b7-49cf-ab2f-7c0cc0eedb7f}, !- Handle
  {9ae477e9-1c98-4bcf-8dfb-b4d8d2bf2424}, !- Name
  {76008c6e-a56e-4bbd-b8e6-87a9801a1143}, !- HVAC Component
  {4180cd9c-bcc7-4fcf-bceb-4e5d747e0358}; !- Port 1

OS:Sizing:Zone,
  {55864bdc-41ee-44ea-a27e-32ec4457548e}, !- Handle
  {76008c6e-a56e-4bbd-b8e6-87a9801a1143}, !- Zone or ZoneList Name
  SupplyAirTemperature,                   !- Zone Cooling Design Supply Air Temperature Input Method
  14,                                     !- Zone Cooling Design Supply Air Temperature {C}
  11.11,                                  !- Zone Cooling Design Supply Air Temperature Difference {deltaC}
  SupplyAirTemperature,                   !- Zone Heating Design Supply Air Temperature Input Method
  40,                                     !- Zone Heating Design Supply Air Temperature {C}
  11.11,                                  !- Zone Heating Design Supply Air Temperature Difference {deltaC}
  0.0085,                                 !- Zone Cooling Design Supply Air Humidity Ratio {kg-H2O/kg-air}
  0.008,                                  !- Zone Heating Design Supply Air Humidity Ratio {kg-H2O/kg-air}
  ,                                       !- Zone Heating Sizing Factor
  ,                                       !- Zone Cooling Sizing Factor
  DesignDay,                              !- Cooling Design Air Flow Method
  ,                                       !- Cooling Design Air Flow Rate {m3/s}
  ,                                       !- Cooling Minimum Air Flow per Zone Floor Area {m3/s-m2}
  ,                                       !- Cooling Minimum Air Flow {m3/s}
  ,                                       !- Cooling Minimum Air Flow Fraction
  DesignDay,                              !- Heating Design Air Flow Method
  ,                                       !- Heating Design Air Flow Rate {m3/s}
  ,                                       !- Heating Maximum Air Flow per Zone Floor Area {m3/s-m2}
  ,                                       !- Heating Maximum Air Flow {m3/s}
  ,                                       !- Heating Maximum Air Flow Fraction
  ,                                       !- Design Zone Air Distribution Effectiveness in Cooling Mode
  ,                                       !- Design Zone Air Distribution Effectiveness in Heating Mode
  No,                                     !- Account for Dedicated Outdoor Air System
  NeutralSupplyAir,                       !- Dedicated Outdoor Air System Control Strategy
  autosize,                               !- Dedicated Outdoor Air Low Setpoint Temperature for Design {C}
  autosize;                               !- Dedicated Outdoor Air High Setpoint Temperature for Design {C}

OS:ZoneHVAC:EquipmentList,
  {27d1640a-15e9-4c7f-af18-2d75b40df27c}, !- Handle
  Zone HVAC Equipment List 2,             !- Name
  {76008c6e-a56e-4bbd-b8e6-87a9801a1143}, !- Thermal Zone
  UniformLoad,                            !- Load Distribution Scheme
  {07fff2d4-babb-4f7c-863d-84cde70154aa}, !- Zone Equipment 1
  1,                                      !- Zone Equipment Cooling Sequence 1
  1;                                      !- Zone Equipment Heating or No-Load Sequence 1

OS:Space,
  {5ed463fc-e66a-4995-b95e-2b37c286a272}, !- Handle
  living space|unit 2|story 1,            !- Name
  {3ec645a7-2d9f-4a14-978e-e98ab54984cf}, !- Space Type Name
  ,                                       !- Default Construction Set Name
  ,                                       !- Default Schedule Set Name
  -0,                                     !- Direction of Relative North {deg}
  0,                                      !- X Origin {m}
  0,                                      !- Y Origin {m}
  0,                                      !- Z Origin {m}
  ,                                       !- Building Story Name
  {76008c6e-a56e-4bbd-b8e6-87a9801a1143}, !- Thermal Zone Name
  ,                                       !- Part of Total Floor Area
  ,                                       !- Design Specification Outdoor Air Object Name
  {52f5a6f0-11b9-47c2-b888-54895b656b28}; !- Building Unit Name

OS:Surface,
  {8d7279e3-f022-4897-a0a6-0959e4ca5f17}, !- Handle
  Surface 12,                             !- Name
  Floor,                                  !- Surface Type
  ,                                       !- Construction Name
  {5ed463fc-e66a-4995-b95e-2b37c286a272}, !- Space Name
  Foundation,                             !- Outside Boundary Condition
  ,                                       !- Outside Boundary Condition Object
  NoSun,                                  !- Sun Exposure
  NoWind,                                 !- Wind Exposure
  ,                                       !- View Factor to Ground
  ,                                       !- Number of Vertices
  6.46578440716979, -12.9315688143396, 0, !- X,Y,Z Vertex 1 {m}
  6.46578440716979, 0, 0,                 !- X,Y,Z Vertex 2 {m}
  12.9315688143396, 0, 0,                 !- X,Y,Z Vertex 3 {m}
  12.9315688143396, -12.9315688143396, 0; !- X,Y,Z Vertex 4 {m}

OS:Surface,
  {efd98ea4-24c0-4453-a0b2-5b2466a64c0a}, !- Handle
  Surface 13,                             !- Name
  RoofCeiling,                            !- Surface Type
  ,                                       !- Construction Name
  {5ed463fc-e66a-4995-b95e-2b37c286a272}, !- Space Name
  Surface,                                !- Outside Boundary Condition
  {d75775d3-6db6-489f-86cc-df0419f6aeeb}, !- Outside Boundary Condition Object
  NoSun,                                  !- Sun Exposure
  NoWind,                                 !- Wind Exposure
  ,                                       !- View Factor to Ground
  ,                                       !- Number of Vertices
  12.9315688143396, -12.9315688143396, 2.4384, !- X,Y,Z Vertex 1 {m}
  12.9315688143396, 0, 2.4384,            !- X,Y,Z Vertex 2 {m}
  6.46578440716979, 0, 2.4384,            !- X,Y,Z Vertex 3 {m}
  6.46578440716979, -12.9315688143396, 2.4384; !- X,Y,Z Vertex 4 {m}

OS:Surface,
  {22fcc6c6-09c5-48b3-84ad-6c1ea6f82c3d}, !- Handle
  Surface 14,                             !- Name
  Wall,                                   !- Surface Type
  ,                                       !- Construction Name
  {5ed463fc-e66a-4995-b95e-2b37c286a272}, !- Space Name
  Surface,                                !- Outside Boundary Condition
  {c296b8cb-e2b2-4826-ad1e-aaa023f8d63c}, !- Outside Boundary Condition Object
  NoSun,                                  !- Sun Exposure
  NoWind,                                 !- Wind Exposure
  ,                                       !- View Factor to Ground
  ,                                       !- Number of Vertices
  12.9315688143396, -12.9315688143396, 2.4384, !- X,Y,Z Vertex 1 {m}
  12.9315688143396, -12.9315688143396, 0, !- X,Y,Z Vertex 2 {m}
  12.9315688143396, 0, 0,                 !- X,Y,Z Vertex 3 {m}
  12.9315688143396, 0, 2.4384;            !- X,Y,Z Vertex 4 {m}

OS:Surface,
  {982bfee3-8b64-440a-b7b5-8ed9cb10f4e8}, !- Handle
  Surface 15,                             !- Name
  Wall,                                   !- Surface Type
  ,                                       !- Construction Name
  {5ed463fc-e66a-4995-b95e-2b37c286a272}, !- Space Name
  Outdoors,                               !- Outside Boundary Condition
  ,                                       !- Outside Boundary Condition Object
  SunExposed,                             !- Sun Exposure
  WindExposed,                            !- Wind Exposure
  ,                                       !- View Factor to Ground
  ,                                       !- Number of Vertices
  6.46578440716979, -12.9315688143396, 2.4384, !- X,Y,Z Vertex 1 {m}
  6.46578440716979, -12.9315688143396, 0, !- X,Y,Z Vertex 2 {m}
  12.9315688143396, -12.9315688143396, 0, !- X,Y,Z Vertex 3 {m}
  12.9315688143396, -12.9315688143396, 2.4384; !- X,Y,Z Vertex 4 {m}

OS:Surface,
  {12d531c7-5f19-401f-b5bc-c82af3afe859}, !- Handle
  Surface 16,                             !- Name
  Wall,                                   !- Surface Type
  ,                                       !- Construction Name
  {5ed463fc-e66a-4995-b95e-2b37c286a272}, !- Space Name
  Surface,                                !- Outside Boundary Condition
  {14eeb8da-74d6-4301-9df5-aa88c3bfffd1}, !- Outside Boundary Condition Object
  NoSun,                                  !- Sun Exposure
  NoWind,                                 !- Wind Exposure
  ,                                       !- View Factor to Ground
  ,                                       !- Number of Vertices
  6.46578440716979, 0, 2.4384,            !- X,Y,Z Vertex 1 {m}
  6.46578440716979, 0, 0,                 !- X,Y,Z Vertex 2 {m}
  6.46578440716979, -12.9315688143396, 0, !- X,Y,Z Vertex 3 {m}
  6.46578440716979, -12.9315688143396, 2.4384; !- X,Y,Z Vertex 4 {m}

OS:Surface,
  {23690366-e36c-4f57-a06a-f4b7287b0554}, !- Handle
  Surface 17,                             !- Name
  Wall,                                   !- Surface Type
  ,                                       !- Construction Name
  {5ed463fc-e66a-4995-b95e-2b37c286a272}, !- Space Name
  Outdoors,                               !- Outside Boundary Condition
  ,                                       !- Outside Boundary Condition Object
  SunExposed,                             !- Sun Exposure
  WindExposed,                            !- Wind Exposure
  ,                                       !- View Factor to Ground
  ,                                       !- Number of Vertices
  12.9315688143396, 0, 2.4384,            !- X,Y,Z Vertex 1 {m}
  12.9315688143396, 0, 0,                 !- X,Y,Z Vertex 2 {m}
  6.46578440716979, 0, 0,                 !- X,Y,Z Vertex 3 {m}
  6.46578440716979, 0, 2.4384;            !- X,Y,Z Vertex 4 {m}

OS:ThermalZone,
  {c543cb06-168f-45dd-8417-ccfba09e592e}, !- Handle
  living zone|unit 3,                     !- Name
  ,                                       !- Multiplier
  ,                                       !- Ceiling Height {m}
  ,                                       !- Volume {m3}
  ,                                       !- Floor Area {m2}