!- NOTE: Auto-generated from /test/osw_files/SFA_4units_1story_SL_UA_3Beds_2Baths_Denver_Furnace_NoSetpoints.osw

OS:Version,
  {5413b7e6-a6c3-475c-9da1-c125551aa742}, !- Handle
  2.5.1;                                  !- Version Identifier

OS:Building,
  {5a899f31-d169-4e3f-85c2-2399ae75e2c0}, !- Handle
  Building 1,                             !- Name
  ,                                       !- Building Sector Type
  0,                                      !- North Axis {deg}
  ,                                       !- Nominal Floor to Floor Height {m}
  ,                                       !- Space Type Name
  ,                                       !- Default Construction Set Name
  ,                                       !- Default Schedule Set Name
  1,                                      !- Standards Number of Stories
  1,                                      !- Standards Number of Above Ground Stories
  singlefamilyttached,                    !- Standards Building Type
  4;                                      !- Standards Number of Living Units

OS:Facility,
  {1d64556e-3a8c-45ed-b259-df67c005ed85}; !- Handle

OS:Site,
  {6fb89123-7a3f-425e-bbce-30ec654c2c2d}, !- Handle
  Denver Intl Ap_CO_USA,                  !- Name
  39.83,                                  !- Latitude {deg}
  -104.65,                                !- Longitude {deg}
  -7,                                     !- Time Zone {hr}
  1650,                                   !- Elevation {m}
  ;                                       !- Terrain

OS:SimulationControl,
  {477f1c32-f307-46de-9efd-a3cbff62715c}, !- Handle
  ,                                       !- Do Zone Sizing Calculation
  ,                                       !- Do System Sizing Calculation
  ,                                       !- Do Plant Sizing Calculation
  No;                                     !- Run Simulation for Sizing Periods

OS:Sizing:Parameters,
  {16306ffd-a0ff-498c-ac76-caea69cb523d}, !- Handle
  1.25,                                   !- Heating Sizing Factor
  1.15;                                   !- Cooling Sizing Factor

OS:Timestep,
  {4fdd0e13-6380-457f-a997-dffe66be787e}, !- Handle
  6;                                      !- Number of Timesteps per Hour

OS:ShadowCalculation,
  {fd53fb5f-bd96-491c-a8a4-6185b0904e4c}, !- Handle
  20,                                     !- Calculation Frequency
  200;                                    !- Maximum Figures in Shadow Overlap Calculations

OS:HeatBalanceAlgorithm,
  {33799677-fb2d-4fdd-a113-f552d570d5f1}, !- Handle
  ConductionTransferFunction,             !- Algorithm
  200;                                    !- Surface Temperature Upper Limit {C}

OS:RunPeriod,
  {c97630c0-e51b-4ef9-ba0e-996c5aad1314}, !- Handle
  Run Period 1,                           !- Name
  1,                                      !- Begin Month
  1,                                      !- Begin Day of Month
  12,                                     !- End Month
  31,                                     !- End Day of Month
  ,                                       !- Use Weather File Holidays and Special Days
  ,                                       !- Use Weather File Daylight Saving Period
  ,                                       !- Apply Weekend Holiday Rule
  ,                                       !- Use Weather File Rain Indicators
  ,                                       !- Use Weather File Snow Indicators
  ;                                       !- Number of Times Runperiod to be Repeated

OS:LifeCycleCost:Parameters,
  {f7fbbb09-eabf-4861-9f1a-be6be8b1fc75}, !- Handle
  ,                                       !- Analysis Type
  ,                                       !- Discounting Convention
  ,                                       !- Inflation Approach
  ,                                       !- Real Discount Rate
  ,                                       !- Nominal Discount Rate
  ,                                       !- Inflation
  ,                                       !- Base Date Month
  ,                                       !- Base Date Year
  ,                                       !- Service Date Month
  ,                                       !- Service Date Year
  ;                                       !- Length of Study Period in Years

OS:ThermalZone,
  {25e493eb-1161-4f65-9d16-47b292e810b7}, !- Handle
  living zone,                            !- Name
  ,                                       !- Multiplier
  ,                                       !- Ceiling Height {m}
  ,                                       !- Volume {m3}
  ,                                       !- Floor Area {m2}
  ,                                       !- Zone Inside Convection Algorithm
  ,                                       !- Zone Outside Convection Algorithm
  ,                                       !- Zone Conditioning Equipment List Name
  {676fede2-849d-41b7-9216-ce56e02e41f3}, !- Zone Air Inlet Port List
  {9475be10-08a4-4253-b2e0-1d62876b01eb}, !- Zone Air Exhaust Port List
  {4a24a164-b2de-49ec-a1d8-7f4369998b12}, !- Zone Air Node Name
  {e9bce161-8517-4c7f-9f90-5e4ca70b3d52}, !- Zone Return Air Node Name
  ,                                       !- Primary Daylighting Control Name
  ,                                       !- Fraction of Zone Controlled by Primary Daylighting Control
  ,                                       !- Secondary Daylighting Control Name
  ,                                       !- Fraction of Zone Controlled by Secondary Daylighting Control
  ,                                       !- Illuminance Map Name
  ,                                       !- Group Rendering Name
  ,                                       !- Thermostat Name
  No;                                     !- Use Ideal Air Loads

OS:Node,
  {e30ef34d-febf-4673-a1a1-dba975b3a3a3}, !- Handle
  Node 1,                                 !- Name
  {4a24a164-b2de-49ec-a1d8-7f4369998b12}, !- Inlet Port
  ;                                       !- Outlet Port

OS:Connection,
  {4a24a164-b2de-49ec-a1d8-7f4369998b12}, !- Handle
  {a855b37a-c484-466a-9192-f69381c41b72}, !- Name
  {25e493eb-1161-4f65-9d16-47b292e810b7}, !- Source Object
  11,                                     !- Outlet Port
  {e30ef34d-febf-4673-a1a1-dba975b3a3a3}, !- Target Object
  2;                                      !- Inlet Port

OS:PortList,
  {676fede2-849d-41b7-9216-ce56e02e41f3}, !- Handle
  {9c26c2eb-3832-4ddd-adb1-b5b54769726b}, !- Name
  {25e493eb-1161-4f65-9d16-47b292e810b7}, !- HVAC Component
  {fb1adc8d-60b5-4eac-8e25-8d169638f643}; !- Port 1

OS:PortList,
  {9475be10-08a4-4253-b2e0-1d62876b01eb}, !- Handle
  {3c201f6b-1d30-4735-b8a4-b942dec8ee9e}, !- Name
  {25e493eb-1161-4f65-9d16-47b292e810b7}; !- HVAC Component

OS:Sizing:Zone,
  {f6792466-4168-4efa-bfd7-a6648ac92a8d}, !- Handle
  {25e493eb-1161-4f65-9d16-47b292e810b7}, !- Zone or ZoneList Name
  SupplyAirTemperature,                   !- Zone Cooling Design Supply Air Temperature Input Method
  14,                                     !- Zone Cooling Design Supply Air Temperature {C}
  11.11,                                  !- Zone Cooling Design Supply Air Temperature Difference {deltaC}
  SupplyAirTemperature,                   !- Zone Heating Design Supply Air Temperature Input Method
  40,                                     !- Zone Heating Design Supply Air Temperature {C}
  11.11,                                  !- Zone Heating Design Supply Air Temperature Difference {deltaC}
  0.0085,                                 !- Zone Cooling Design Supply Air Humidity Ratio {kg-H2O/kg-air}
  0.008,                                  !- Zone Heating Design Supply Air Humidity Ratio {kg-H2O/kg-air}
  ,                                       !- Zone Heating Sizing Factor
  ,                                       !- Zone Cooling Sizing Factor
  DesignDay,                              !- Cooling Design Air Flow Method
  ,                                       !- Cooling Design Air Flow Rate {m3/s}
  ,                                       !- Cooling Minimum Air Flow per Zone Floor Area {m3/s-m2}
  ,                                       !- Cooling Minimum Air Flow {m3/s}
  ,                                       !- Cooling Minimum Air Flow Fraction
  DesignDay,                              !- Heating Design Air Flow Method
  ,                                       !- Heating Design Air Flow Rate {m3/s}
  ,                                       !- Heating Maximum Air Flow per Zone Floor Area {m3/s-m2}
  ,                                       !- Heating Maximum Air Flow {m3/s}
  ,                                       !- Heating Maximum Air Flow Fraction
  ,                                       !- Design Zone Air Distribution Effectiveness in Cooling Mode
  ,                                       !- Design Zone Air Distribution Effectiveness in Heating Mode
  No,                                     !- Account for Dedicated Outdoor Air System
  NeutralSupplyAir,                       !- Dedicated Outdoor Air System Control Strategy
  autosize,                               !- Dedicated Outdoor Air Low Setpoint Temperature for Design {C}
  autosize;                               !- Dedicated Outdoor Air High Setpoint Temperature for Design {C}

OS:ZoneHVAC:EquipmentList,
  {553372e9-7779-4a84-8de3-86384f75e65a}, !- Handle
  Zone HVAC Equipment List 1,             !- Name
  {25e493eb-1161-4f65-9d16-47b292e810b7}, !- Thermal Zone
  {be4b63d1-9571-4394-aaff-945fb2dc684f}, !- Zone Equipment 1
  1,                                      !- Zone Equipment Cooling Sequence 1
  1;                                      !- Zone Equipment Heating or No-Load Sequence 1

OS:Space,
  {2350666f-fc50-4f99-b17c-2dd57c97844b}, !- Handle
  living space,                           !- Name
  {ed4c4869-1889-463b-9afb-a3905dfc591e}, !- Space Type Name
  ,                                       !- Default Construction Set Name
  ,                                       !- Default Schedule Set Name
  ,                                       !- Direction of Relative North {deg}
  ,                                       !- X Origin {m}
  ,                                       !- Y Origin {m}
  ,                                       !- Z Origin {m}
  ,                                       !- Building Story Name
  {25e493eb-1161-4f65-9d16-47b292e810b7}, !- Thermal Zone Name
  ,                                       !- Part of Total Floor Area
  ,                                       !- Design Specification Outdoor Air Object Name
  {a83e7813-0bb3-45a6-ba04-3cc19425d752}; !- Building Unit Name

OS:Surface,
  {5f589dff-55e6-4d5a-869c-779156afe349}, !- Handle
  Surface 1,                              !- Name
  Floor,                                  !- Surface Type
  ,                                       !- Construction Name
  {2350666f-fc50-4f99-b17c-2dd57c97844b}, !- Space Name
  Foundation,                             !- Outside Boundary Condition
  ,                                       !- Outside Boundary Condition Object
  NoSun,                                  !- Sun Exposure
  NoWind,                                 !- Wind Exposure
  ,                                       !- View Factor to Ground
  ,                                       !- Number of Vertices
  0, -12.9315688143396, 0,                !- X,Y,Z Vertex 1 {m}
  0, 0, 0,                                !- X,Y,Z Vertex 2 {m}
  6.46578440716979, 0, 0,                 !- X,Y,Z Vertex 3 {m}
  6.46578440716979, -12.9315688143396, 0; !- X,Y,Z Vertex 4 {m}

OS:Surface,
  {dcbc7d81-fd1d-4178-8c58-805520adc6f1}, !- Handle
  Surface 2,                              !- Name
  Wall,                                   !- Surface Type
  ,                                       !- Construction Name
  {2350666f-fc50-4f99-b17c-2dd57c97844b}, !- Space Name
  Outdoors,                               !- Outside Boundary Condition
  ,                                       !- Outside Boundary Condition Object
  SunExposed,                             !- Sun Exposure
  WindExposed,                            !- Wind Exposure
  ,                                       !- View Factor to Ground
  ,                                       !- Number of Vertices
  0, 0, 2.4384,                           !- X,Y,Z Vertex 1 {m}
  0, 0, 0,                                !- X,Y,Z Vertex 2 {m}
  0, -12.9315688143396, 0,                !- X,Y,Z Vertex 3 {m}
  0, -12.9315688143396, 2.4384;           !- X,Y,Z Vertex 4 {m}

OS:Surface,
  {9e7216f0-51ba-4d47-8a33-bd514c748741}, !- Handle
  Surface 3,                              !- Name
  Wall,                                   !- Surface Type
  ,                                       !- Construction Name
  {2350666f-fc50-4f99-b17c-2dd57c97844b}, !- Space Name
  Outdoors,                               !- Outside Boundary Condition
  ,                                       !- Outside Boundary Condition Object
  SunExposed,                             !- Sun Exposure
  WindExposed,                            !- Wind Exposure
  ,                                       !- View Factor to Ground
  ,                                       !- Number of Vertices
  6.46578440716979, 0, 2.4384,            !- X,Y,Z Vertex 1 {m}
  6.46578440716979, 0, 0,                 !- X,Y,Z Vertex 2 {m}
  0, 0, 0,                                !- X,Y,Z Vertex 3 {m}
  0, 0, 2.4384;                           !- X,Y,Z Vertex 4 {m}

OS:Surface,
  {0f1b4d98-4979-4ea2-a638-5c288e6ddf19}, !- Handle
  Surface 4,                              !- Name
  Wall,                                   !- Surface Type
  ,                                       !- Construction Name
  {2350666f-fc50-4f99-b17c-2dd57c97844b}, !- Space Name
  Surface,                                !- Outside Boundary Condition
  {d3fcb0db-2891-4de5-9181-261105e4c457}, !- Outside Boundary Condition Object
  NoSun,                                  !- Sun Exposure
  NoWind,                                 !- Wind Exposure
  ,                                       !- View Factor to Ground
  ,                                       !- Number of Vertices
  6.46578440716979, -12.9315688143396, 2.4384, !- X,Y,Z Vertex 1 {m}
  6.46578440716979, -12.9315688143396, 0, !- X,Y,Z Vertex 2 {m}
  6.46578440716979, 0, 0,                 !- X,Y,Z Vertex 3 {m}
  6.46578440716979, 0, 2.4384;            !- X,Y,Z Vertex 4 {m}

OS:Surface,
  {316a5a29-dca2-4ef4-8355-555ba87edb93}, !- Handle
  Surface 5,                              !- Name
  Wall,                                   !- Surface Type
  ,                                       !- Construction Name
  {2350666f-fc50-4f99-b17c-2dd57c97844b}, !- Space Name
  Outdoors,                               !- Outside Boundary Condition
  ,                                       !- Outside Boundary Condition Object
  SunExposed,                             !- Sun Exposure
  WindExposed,                            !- Wind Exposure
  ,                                       !- View Factor to Ground
  ,                                       !- Number of Vertices
  0, -12.9315688143396, 2.4384,           !- X,Y,Z Vertex 1 {m}
  0, -12.9315688143396, 0,                !- X,Y,Z Vertex 2 {m}
  6.46578440716979, -12.9315688143396, 0, !- X,Y,Z Vertex 3 {m}
  6.46578440716979, -12.9315688143396, 2.4384; !- X,Y,Z Vertex 4 {m}

OS:Surface,
  {2aef8915-0021-441b-bd4e-27fae28490e7}, !- Handle
  Surface 6,                              !- Name
  RoofCeiling,                            !- Surface Type
  ,                                       !- Construction Name
  {2350666f-fc50-4f99-b17c-2dd57c97844b}, !- Space Name
  Surface,                                !- Outside Boundary Condition
  {af8dbe46-3e5a-451d-9aa5-d9c195b3442a}, !- Outside Boundary Condition Object
  NoSun,                                  !- Sun Exposure
  NoWind,                                 !- Wind Exposure
  ,                                       !- View Factor to Ground
  ,                                       !- Number of Vertices
  6.46578440716979, -12.9315688143396, 2.4384, !- X,Y,Z Vertex 1 {m}
  6.46578440716979, 0, 2.4384,            !- X,Y,Z Vertex 2 {m}
  0, 0, 2.4384,                           !- X,Y,Z Vertex 3 {m}
  0, -12.9315688143396, 2.4384;           !- X,Y,Z Vertex 4 {m}

OS:SpaceType,
  {ed4c4869-1889-463b-9afb-a3905dfc591e}, !- Handle
  Space Type 1,                           !- Name
  ,                                       !- Default Construction Set Name
  ,                                       !- Default Schedule Set Name
  ,                                       !- Group Rendering Name
  ,                                       !- Design Specification Outdoor Air Object Name
  ,                                       !- Standards Building Type
  living;                                 !- Standards Space Type

OS:ThermalZone,
  {2e3e86f0-5708-4e02-a4b8-d1415e39a9cc}, !- Handle
  living zone|unit 2,                     !- Name
  ,                                       !- Multiplier
  ,                                       !- Ceiling Height {m}
  ,                                       !- Volume {m3}
  ,                                       !- Floor Area {m2}
  ,                                       !- Zone Inside Convection Algorithm
  ,                                       !- Zone Outside Convection Algorithm
  ,                                       !- Zone Conditioning Equipment List Name
  {7d466de0-d91d-4f90-a379-f06b506e6644}, !- Zone Air Inlet Port List
  {684ccf5b-91ed-4df9-b2f5-26e03c6732be}, !- Zone Air Exhaust Port List
  {a50a25d9-260b-423a-a146-f921c74c32be}, !- Zone Air Node Name
  {2c6d8b2a-c136-4006-b949-61c5a03183f9}, !- Zone Return Air Node Name
  ,                                       !- Primary Daylighting Control Name
  ,                                       !- Fraction of Zone Controlled by Primary Daylighting Control
  ,                                       !- Secondary Daylighting Control Name
  ,                                       !- Fraction of Zone Controlled by Secondary Daylighting Control
  ,                                       !- Illuminance Map Name
  ,                                       !- Group Rendering Name
  ,                                       !- Thermostat Name
  No;                                     !- Use Ideal Air Loads

OS:Node,
  {283cedd2-e24d-43e8-9045-ca2bb18afd0e}, !- Handle
  Node 2,                                 !- Name
  {a50a25d9-260b-423a-a146-f921c74c32be}, !- Inlet Port
  ;                                       !- Outlet Port

OS:Connection,
  {a50a25d9-260b-423a-a146-f921c74c32be}, !- Handle
  {2d569529-91c8-4fef-94fb-a7c75c4ce330}, !- Name
  {2e3e86f0-5708-4e02-a4b8-d1415e39a9cc}, !- Source Object
  11,                                     !- Outlet Port
  {283cedd2-e24d-43e8-9045-ca2bb18afd0e}, !- Target Object
  2;                                      !- Inlet Port

OS:PortList,
  {7d466de0-d91d-4f90-a379-f06b506e6644}, !- Handle
  {2c1bef39-6149-4f62-b7d7-5c49200d1524}, !- Name
  {2e3e86f0-5708-4e02-a4b8-d1415e39a9cc}, !- HVAC Component
  {5e5e8d12-dfda-468e-b3c0-9ea4ad456ea5}; !- Port 1

OS:PortList,
  {684ccf5b-91ed-4df9-b2f5-26e03c6732be}, !- Handle
  {9e6f52ce-645e-471b-99f4-d3f572324448}, !- Name
  {2e3e86f0-5708-4e02-a4b8-d1415e39a9cc}; !- HVAC Component

OS:Sizing:Zone,
  {e3ba53e5-a566-41b1-a896-c771d2e3a26d}, !- Handle
  {2e3e86f0-5708-4e02-a4b8-d1415e39a9cc}, !- Zone or ZoneList Name
  SupplyAirTemperature,                   !- Zone Cooling Design Supply Air Temperature Input Method
  14,                                     !- Zone Cooling Design Supply Air Temperature {C}
  11.11,                                  !- Zone Cooling Design Supply Air Temperature Difference {deltaC}
  SupplyAirTemperature,                   !- Zone Heating Design Supply Air Temperature Input Method
  40,                                     !- Zone Heating Design Supply Air Temperature {C}
  11.11,                                  !- Zone Heating Design Supply Air Temperature Difference {deltaC}
  0.0085,                                 !- Zone Cooling Design Supply Air Humidity Ratio {kg-H2O/kg-air}
  0.008,                                  !- Zone Heating Design Supply Air Humidity Ratio {kg-H2O/kg-air}
  ,                                       !- Zone Heating Sizing Factor
  ,                                       !- Zone Cooling Sizing Factor
  DesignDay,                              !- Cooling Design Air Flow Method
  ,                                       !- Cooling Design Air Flow Rate {m3/s}
  ,                                       !- Cooling Minimum Air Flow per Zone Floor Area {m3/s-m2}
  ,                                       !- Cooling Minimum Air Flow {m3/s}
  ,                                       !- Cooling Minimum Air Flow Fraction
  DesignDay,                              !- Heating Design Air Flow Method
  ,                                       !- Heating Design Air Flow Rate {m3/s}
  ,                                       !- Heating Maximum Air Flow per Zone Floor Area {m3/s-m2}
  ,                                       !- Heating Maximum Air Flow {m3/s}
  ,                                       !- Heating Maximum Air Flow Fraction
  ,                                       !- Design Zone Air Distribution Effectiveness in Cooling Mode
  ,                                       !- Design Zone Air Distribution Effectiveness in Heating Mode
  No,                                     !- Account for Dedicated Outdoor Air System
  NeutralSupplyAir,                       !- Dedicated Outdoor Air System Control Strategy
  autosize,                               !- Dedicated Outdoor Air Low Setpoint Temperature for Design {C}
  autosize;                               !- Dedicated Outdoor Air High Setpoint Temperature for Design {C}

OS:ZoneHVAC:EquipmentList,
  {c91ff6d9-73f5-45fe-8537-5b5fba88f70d}, !- Handle
  Zone HVAC Equipment List 2,             !- Name
  {2e3e86f0-5708-4e02-a4b8-d1415e39a9cc}, !- Thermal Zone
  {83a2837e-cab5-4cac-a957-8f1cb70743ac}, !- Zone Equipment 1
  1,                                      !- Zone Equipment Cooling Sequence 1
  1;                                      !- Zone Equipment Heating or No-Load Sequence 1

OS:Space,
  {c9499b8b-0cb3-4482-aa97-acb7af45c508}, !- Handle
  living space|unit 2|story 1,            !- Name
  {ed4c4869-1889-463b-9afb-a3905dfc591e}, !- Space Type Name
  ,                                       !- Default Construction Set Name
  ,                                       !- Default Schedule Set Name
  -0,                                     !- Direction of Relative North {deg}
  0,                                      !- X Origin {m}
  0,                                      !- Y Origin {m}
  0,                                      !- Z Origin {m}
  ,                                       !- Building Story Name
  {2e3e86f0-5708-4e02-a4b8-d1415e39a9cc}, !- Thermal Zone Name
  ,                                       !- Part of Total Floor Area
  ,                                       !- Design Specification Outdoor Air Object Name
  {365a2256-5eb7-4849-89ef-06ed72eae145}; !- Building Unit Name

OS:Surface,
  {0ed65cfc-59d5-4e12-b4e4-827bff31459b}, !- Handle
  Surface 12,                             !- Name
  Wall,                                   !- Surface Type
  ,                                       !- Construction Name
  {c9499b8b-0cb3-4482-aa97-acb7af45c508}, !- Space Name
  Outdoors,                               !- Outside Boundary Condition
  ,                                       !- Outside Boundary Condition Object
  SunExposed,                             !- Sun Exposure
  WindExposed,                            !- Wind Exposure
  ,                                       !- View Factor to Ground
  ,                                       !- Number of Vertices
  12.9315688143396, 0, 2.4384,            !- X,Y,Z Vertex 1 {m}
  12.9315688143396, 0, 0,                 !- X,Y,Z Vertex 2 {m}
  6.46578440716979, 0, 0,                 !- X,Y,Z Vertex 3 {m}
  6.46578440716979, 0, 2.4384;            !- X,Y,Z Vertex 4 {m}

OS:Surface,
  {d3fcb0db-2891-4de5-9181-261105e4c457}, !- Handle
  Surface 13,                             !- Name
  Wall,                                   !- Surface Type
  ,                                       !- Construction Name
  {c9499b8b-0cb3-4482-aa97-acb7af45c508}, !- Space Name
  Surface,                                !- Outside Boundary Condition
  {0f1b4d98-4979-4ea2-a638-5c288e6ddf19}, !- Outside Boundary Condition Object
  NoSun,                                  !- Sun Exposure
  NoWind,                                 !- Wind Exposure
  ,                                       !- View Factor to Ground
  ,                                       !- Number of Vertices
  6.46578440716979, 0, 2.4384,            !- X,Y,Z Vertex 1 {m}
  6.46578440716979, 0, 0,                 !- X,Y,Z Vertex 2 {m}
  6.46578440716979, -12.9315688143396, 0, !- X,Y,Z Vertex 3 {m}
  6.46578440716979, -12.9315688143396, 2.4384; !- X,Y,Z Vertex 4 {m}

OS:Surface,
  {fb274b56-fecb-40c0-a252-a0bf0a9bb4a3}, !- Handle
  Surface 14,                             !- Name
  Wall,                                   !- Surface Type
  ,                                       !- Construction Name
  {c9499b8b-0cb3-4482-aa97-acb7af45c508}, !- Space Name
  Surface,                                !- Outside Boundary Condition
  {eb7377aa-42e4-4dd9-af11-fe72ee82f0c0}, !- Outside Boundary Condition Object
  NoSun,                                  !- Sun Exposure
  NoWind,                                 !- Wind Exposure
  ,                                       !- View Factor to Ground
  ,                                       !- Number of Vertices
  12.9315688143396, -12.9315688143396, 2.4384, !- X,Y,Z Vertex 1 {m}
  12.9315688143396, -12.9315688143396, 0, !- X,Y,Z Vertex 2 {m}
  12.9315688143396, 0, 0,                 !- X,Y,Z Vertex 3 {m}
  12.9315688143396, 0, 2.4384;            !- X,Y,Z Vertex 4 {m}

OS:Surface,
  {47772e0b-85c7-4ff3-b1f4-9f19a8ff6879}, !- Handle
  Surface 15,                             !- Name
  Floor,                                  !- Surface Type
  ,                                       !- Construction Name
  {c9499b8b-0cb3-4482-aa97-acb7af45c508}, !- Space Name
  Foundation,                             !- Outside Boundary Condition
  ,                                       !- Outside Boundary Condition Object
  NoSun,                                  !- Sun Exposure
  NoWind,                                 !- Wind Exposure
  ,                                       !- View Factor to Ground
  ,                                       !- Number of Vertices
  6.46578440716979, -12.9315688143396, 0, !- X,Y,Z Vertex 1 {m}
  6.46578440716979, 0, 0,                 !- X,Y,Z Vertex 2 {m}
  12.9315688143396, 0, 0,                 !- X,Y,Z Vertex 3 {m}
  12.9315688143396, -12.9315688143396, 0; !- X,Y,Z Vertex 4 {m}

OS:Surface,
  {224b94df-7728-4b56-8604-d06b2f5d88b9}, !- Handle
  Surface 16,                             !- Name
  RoofCeiling,                            !- Surface Type
  ,                                       !- Construction Name
  {c9499b8b-0cb3-4482-aa97-acb7af45c508}, !- Space Name
  Surface,                                !- Outside Boundary Condition
  {f26cd155-1019-408b-9856-1d572516c3cc}, !- Outside Boundary Condition Object
  NoSun,                                  !- Sun Exposure
  NoWind,                                 !- Wind Exposure
  ,                                       !- View Factor to Ground
  ,                                       !- Number of Vertices
  12.9315688143396, -12.9315688143396, 2.4384, !- X,Y,Z Vertex 1 {m}
  12.9315688143396, 0, 2.4384,            !- X,Y,Z Vertex 2 {m}
  6.46578440716979, 0, 2.4384,            !- X,Y,Z Vertex 3 {m}
  6.46578440716979, -12.9315688143396, 2.4384; !- X,Y,Z Vertex 4 {m}

OS:Surface,
  {e4c0de38-c598-44aa-98ea-66ac3d973322}, !- Handle
  Surface 17,                             !- Name
  Wall,                                   !- Surface Type
  ,                                       !- Construction Name
  {c9499b8b-0cb3-4482-aa97-acb7af45c508}, !- Space Name
  Outdoors,                               !- Outside Boundary Condition
  ,                                       !- Outside Boundary Condition Object
  SunExposed,                             !- Sun Exposure
  WindExposed,                            !- Wind Exposure
  ,                                       !- View Factor to Ground
  ,                                       !- Number of Vertices
  6.46578440716979, -12.9315688143396, 2.4384, !- X,Y,Z Vertex 1 {m}
  6.46578440716979, -12.9315688143396, 0, !- X,Y,Z Vertex 2 {m}
  12.9315688143396, -12.9315688143396, 0, !- X,Y,Z Vertex 3 {m}
  12.9315688143396, -12.9315688143396, 2.4384; !- X,Y,Z Vertex 4 {m}

OS:ThermalZone,
  {0d82764c-4fb8-40be-aec2-b408f933ee52}, !- Handle
  living zone|unit 3,                     !- Name
  ,                                       !- Multiplier
  ,                                       !- Ceiling Height {m}
  ,                                       !- Volume {m3}
  ,                                       !- Floor Area {m2}
  ,                                       !- Zone Inside Convection Algorithm
  ,                                       !- Zone Outside Convection Algorithm
  ,                                       !- Zone Conditioning Equipment List Name
  {10a4fbbe-5844-4528-8ac5-8198b74a6aec}, !- Zone Air Inlet Port List
  {8d87fb6a-7b01-4527-815d-84b1c6691883}, !- Zone Air Exhaust Port List
  {e8c154a5-a4bc-402c-b417-8afbd6ef8a4e}, !- Zone Air Node Name
  {da816b88-9c66-4691-a9c4-da2fb9d6be9b}, !- Zone Return Air Node Name
  ,                                       !- Primary Daylighting Control Name