!- NOTE: Auto-generated from /test/osw_files/SFA_4units_1story_SL_UA_3Beds_2Baths_Denver_Furnace_NoSetpoints.osw

OS:Version,
  {54e124e1-cabb-4366-969f-a8f3d622c8db}, !- Handle
  2.6.0;                                  !- Version Identifier

OS:Building,
  {393a17b5-7ea9-46b6-beff-0cc94e2b911a}, !- Handle
  Building 1,                             !- Name
  ,                                       !- Building Sector Type
  0,                                      !- North Axis {deg}
  ,                                       !- Nominal Floor to Floor Height {m}
  ,                                       !- Space Type Name
  ,                                       !- Default Construction Set Name
  ,                                       !- Default Schedule Set Name
  1,                                      !- Standards Number of Stories
  1,                                      !- Standards Number of Above Ground Stories
  singlefamilyttached,                    !- Standards Building Type
  4;                                      !- Standards Number of Living Units

OS:Facility,
  {a788067f-808b-4e66-8230-3a53c613c6b0}; !- Handle

OS:Site,
  {040b1e37-156c-4936-af30-7a5d5de8b847}, !- Handle
  Denver Intl Ap_CO_USA,                  !- Name
  39.83,                                  !- Latitude {deg}
  -104.65,                                !- Longitude {deg}
  -7,                                     !- Time Zone {hr}
  1650,                                   !- Elevation {m}
  ;                                       !- Terrain

OS:SimulationControl,
  {4ffd9842-8459-4264-9421-2785c0c563da}, !- Handle
  ,                                       !- Do Zone Sizing Calculation
  ,                                       !- Do System Sizing Calculation
  ,                                       !- Do Plant Sizing Calculation
  No;                                     !- Run Simulation for Sizing Periods

OS:Sizing:Parameters,
  {48852a1e-dffa-4579-b0f6-710be434b399}, !- Handle
  1.25,                                   !- Heating Sizing Factor
  1.15;                                   !- Cooling Sizing Factor

OS:Timestep,
  {82cc1b0b-b290-4096-9380-d6208f27c7dc}, !- Handle
  6;                                      !- Number of Timesteps per Hour

OS:ShadowCalculation,
  {ecc4d4bc-b51c-4103-a6b1-1d30f25321d0}, !- Handle
  20,                                     !- Calculation Frequency
  200;                                    !- Maximum Figures in Shadow Overlap Calculations

OS:HeatBalanceAlgorithm,
  {7fb1ad15-426f-4694-bde6-a12c41c2bad5}, !- Handle
  ConductionTransferFunction,             !- Algorithm
  200;                                    !- Surface Temperature Upper Limit {C}

OS:RunPeriod,
  {968325bf-825a-4df5-a507-3667cb0b40ed}, !- Handle
  Run Period 1,                           !- Name
  1,                                      !- Begin Month
  1,                                      !- Begin Day of Month
  12,                                     !- End Month
  31,                                     !- End Day of Month
  ,                                       !- Use Weather File Holidays and Special Days
  ,                                       !- Use Weather File Daylight Saving Period
  ,                                       !- Apply Weekend Holiday Rule
  ,                                       !- Use Weather File Rain Indicators
  ,                                       !- Use Weather File Snow Indicators
  ;                                       !- Number of Times Runperiod to be Repeated

OS:LifeCycleCost:Parameters,
  {e4b678ae-6390-4a30-9534-94e4d7686c88}, !- Handle
  ,                                       !- Analysis Type
  ,                                       !- Discounting Convention
  ,                                       !- Inflation Approach
  ,                                       !- Real Discount Rate
  ,                                       !- Nominal Discount Rate
  ,                                       !- Inflation
  ,                                       !- Base Date Month
  ,                                       !- Base Date Year
  ,                                       !- Service Date Month
  ,                                       !- Service Date Year
  ;                                       !- Length of Study Period in Years

OS:ThermalZone,
  {09b75076-c602-4d96-b4b6-b314f2cbe8ca}, !- Handle
  living zone,                            !- Name
  ,                                       !- Multiplier
  ,                                       !- Ceiling Height {m}
  ,                                       !- Volume {m3}
  ,                                       !- Floor Area {m2}
  ,                                       !- Zone Inside Convection Algorithm
  ,                                       !- Zone Outside Convection Algorithm
  ,                                       !- Zone Conditioning Equipment List Name
  {2769afde-932c-4e30-ad1d-7d696da35dd5}, !- Zone Air Inlet Port List
  {4a1bdc3c-c288-4104-83b3-9adae564bcdf}, !- Zone Air Exhaust Port List
  {5aede6f2-dfb3-4c8b-8c79-4aa30deeffee}, !- Zone Air Node Name
  {32f6cb37-7efb-4afa-a7d3-5e49cda8a26f}, !- Zone Return Air Port List
  ,                                       !- Primary Daylighting Control Name
  ,                                       !- Fraction of Zone Controlled by Primary Daylighting Control
  ,                                       !- Secondary Daylighting Control Name
  ,                                       !- Fraction of Zone Controlled by Secondary Daylighting Control
  ,                                       !- Illuminance Map Name
  ,                                       !- Group Rendering Name
  ,                                       !- Thermostat Name
  No;                                     !- Use Ideal Air Loads

OS:Node,
  {b34e66e2-698b-47a3-80de-980f9efff2e1}, !- Handle
  Node 1,                                 !- Name
  {5aede6f2-dfb3-4c8b-8c79-4aa30deeffee}, !- Inlet Port
  ;                                       !- Outlet Port

OS:Connection,
  {5aede6f2-dfb3-4c8b-8c79-4aa30deeffee}, !- Handle
  {b2351fc6-d271-4ad5-b004-d970dcca4042}, !- Name
  {09b75076-c602-4d96-b4b6-b314f2cbe8ca}, !- Source Object
  11,                                     !- Outlet Port
  {b34e66e2-698b-47a3-80de-980f9efff2e1}, !- Target Object
  2;                                      !- Inlet Port

OS:PortList,
  {2769afde-932c-4e30-ad1d-7d696da35dd5}, !- Handle
  {b9011723-207d-4541-beff-5dc0a2ae435a}, !- Name
  {09b75076-c602-4d96-b4b6-b314f2cbe8ca}, !- HVAC Component
  {d2df8942-9dc5-4b55-b7cb-3a5bd0955fca}; !- Port 1

OS:PortList,
  {4a1bdc3c-c288-4104-83b3-9adae564bcdf}, !- Handle
  {fea755e1-829e-4cb2-a1f1-9ad578df14a0}, !- Name
  {09b75076-c602-4d96-b4b6-b314f2cbe8ca}; !- HVAC Component

OS:PortList,
  {32f6cb37-7efb-4afa-a7d3-5e49cda8a26f}, !- Handle
  {4e2b8d2a-5998-4663-86b2-9b63721dec58}, !- Name
  {09b75076-c602-4d96-b4b6-b314f2cbe8ca}, !- HVAC Component
  {ffc613c2-204a-45e6-a6ea-b5dab26b01d0}; !- Port 1

OS:Sizing:Zone,
  {7af60d53-40c1-479e-957a-10cc3e809e61}, !- Handle
  {09b75076-c602-4d96-b4b6-b314f2cbe8ca}, !- Zone or ZoneList Name
  SupplyAirTemperature,                   !- Zone Cooling Design Supply Air Temperature Input Method
  14,                                     !- Zone Cooling Design Supply Air Temperature {C}
  11.11,                                  !- Zone Cooling Design Supply Air Temperature Difference {deltaC}
  SupplyAirTemperature,                   !- Zone Heating Design Supply Air Temperature Input Method
  40,                                     !- Zone Heating Design Supply Air Temperature {C}
  11.11,                                  !- Zone Heating Design Supply Air Temperature Difference {deltaC}
  0.0085,                                 !- Zone Cooling Design Supply Air Humidity Ratio {kg-H2O/kg-air}
  0.008,                                  !- Zone Heating Design Supply Air Humidity Ratio {kg-H2O/kg-air}
  ,                                       !- Zone Heating Sizing Factor
  ,                                       !- Zone Cooling Sizing Factor
  DesignDay,                              !- Cooling Design Air Flow Method
  ,                                       !- Cooling Design Air Flow Rate {m3/s}
  ,                                       !- Cooling Minimum Air Flow per Zone Floor Area {m3/s-m2}
  ,                                       !- Cooling Minimum Air Flow {m3/s}
  ,                                       !- Cooling Minimum Air Flow Fraction
  DesignDay,                              !- Heating Design Air Flow Method
  ,                                       !- Heating Design Air Flow Rate {m3/s}
  ,                                       !- Heating Maximum Air Flow per Zone Floor Area {m3/s-m2}
  ,                                       !- Heating Maximum Air Flow {m3/s}
  ,                                       !- Heating Maximum Air Flow Fraction
  ,                                       !- Design Zone Air Distribution Effectiveness in Cooling Mode
  ,                                       !- Design Zone Air Distribution Effectiveness in Heating Mode
  No,                                     !- Account for Dedicated Outdoor Air System
  NeutralSupplyAir,                       !- Dedicated Outdoor Air System Control Strategy
  autosize,                               !- Dedicated Outdoor Air Low Setpoint Temperature for Design {C}
  autosize;                               !- Dedicated Outdoor Air High Setpoint Temperature for Design {C}

OS:ZoneHVAC:EquipmentList,
  {c2fabf04-e772-4efd-875f-d0ec84f242e0}, !- Handle
  Zone HVAC Equipment List 1,             !- Name
  {09b75076-c602-4d96-b4b6-b314f2cbe8ca}, !- Thermal Zone
  {5f02acb3-332c-4bbe-bfba-aead429f8b09}, !- Zone Equipment 1
  1,                                      !- Zone Equipment Cooling Sequence 1
  1;                                      !- Zone Equipment Heating or No-Load Sequence 1

OS:Space,
  {7a7f1d66-c5b4-4531-9c65-e9a1ee61b9f9}, !- Handle
  living space,                           !- Name
  {9154df90-0049-41db-88ad-4f066e41112a}, !- Space Type Name
  ,                                       !- Default Construction Set Name
  ,                                       !- Default Schedule Set Name
  ,                                       !- Direction of Relative North {deg}
  ,                                       !- X Origin {m}
  ,                                       !- Y Origin {m}
  ,                                       !- Z Origin {m}
  ,                                       !- Building Story Name
  {09b75076-c602-4d96-b4b6-b314f2cbe8ca}, !- Thermal Zone Name
  ,                                       !- Part of Total Floor Area
  ,                                       !- Design Specification Outdoor Air Object Name
  {8a4ed129-187e-488d-a608-0588cf21691f}; !- Building Unit Name

OS:Surface,
  {5e7ae942-d239-4684-99ad-f8ce15821275}, !- Handle
  Surface 1,                              !- Name
  Floor,                                  !- Surface Type
  ,                                       !- Construction Name
  {7a7f1d66-c5b4-4531-9c65-e9a1ee61b9f9}, !- Space Name
  Foundation,                             !- Outside Boundary Condition
  ,                                       !- Outside Boundary Condition Object
  NoSun,                                  !- Sun Exposure
  NoWind,                                 !- Wind Exposure
  ,                                       !- View Factor to Ground
  ,                                       !- Number of Vertices
  0, -12.9315688143396, 0,                !- X,Y,Z Vertex 1 {m}
  0, 0, 0,                                !- X,Y,Z Vertex 2 {m}
  6.46578440716979, 0, 0,                 !- X,Y,Z Vertex 3 {m}
  6.46578440716979, -12.9315688143396, 0; !- X,Y,Z Vertex 4 {m}

OS:Surface,
  {a43441ae-5860-45bb-849c-9596449d2934}, !- Handle
  Surface 2,                              !- Name
  Wall,                                   !- Surface Type
  ,                                       !- Construction Name
  {7a7f1d66-c5b4-4531-9c65-e9a1ee61b9f9}, !- Space Name
  Outdoors,                               !- Outside Boundary Condition
  ,                                       !- Outside Boundary Condition Object
  SunExposed,                             !- Sun Exposure
  WindExposed,                            !- Wind Exposure
  ,                                       !- View Factor to Ground
  ,                                       !- Number of Vertices
  0, 0, 2.4384,                           !- X,Y,Z Vertex 1 {m}
  0, 0, 0,                                !- X,Y,Z Vertex 2 {m}
  0, -12.9315688143396, 0,                !- X,Y,Z Vertex 3 {m}
  0, -12.9315688143396, 2.4384;           !- X,Y,Z Vertex 4 {m}

OS:Surface,
  {5981639e-9b23-4cb9-8ab8-3df20832c95e}, !- Handle
  Surface 3,                              !- Name
  Wall,                                   !- Surface Type
  ,                                       !- Construction Name
  {7a7f1d66-c5b4-4531-9c65-e9a1ee61b9f9}, !- Space Name
  Outdoors,                               !- Outside Boundary Condition
  ,                                       !- Outside Boundary Condition Object
  SunExposed,                             !- Sun Exposure
  WindExposed,                            !- Wind Exposure
  ,                                       !- View Factor to Ground
  ,                                       !- Number of Vertices
  6.46578440716979, 0, 2.4384,            !- X,Y,Z Vertex 1 {m}
  6.46578440716979, 0, 0,                 !- X,Y,Z Vertex 2 {m}
  0, 0, 0,                                !- X,Y,Z Vertex 3 {m}
  0, 0, 2.4384;                           !- X,Y,Z Vertex 4 {m}

OS:Surface,
  {75249111-c6a5-4364-9bda-f472687adf10}, !- Handle
  Surface 4,                              !- Name
  Wall,                                   !- Surface Type
  ,                                       !- Construction Name
  {7a7f1d66-c5b4-4531-9c65-e9a1ee61b9f9}, !- Space Name
  Surface,                                !- Outside Boundary Condition
  {910e71d8-0053-4868-820f-300f65650d4f}, !- Outside Boundary Condition Object
  NoSun,                                  !- Sun Exposure
  NoWind,                                 !- Wind Exposure
  ,                                       !- View Factor to Ground
  ,                                       !- Number of Vertices
  6.46578440716979, -12.9315688143396, 2.4384, !- X,Y,Z Vertex 1 {m}
  6.46578440716979, -12.9315688143396, 0, !- X,Y,Z Vertex 2 {m}
  6.46578440716979, 0, 0,                 !- X,Y,Z Vertex 3 {m}
  6.46578440716979, 0, 2.4384;            !- X,Y,Z Vertex 4 {m}

OS:Surface,
  {6888fc84-9527-446c-8083-2aa8ede7cc09}, !- Handle
  Surface 5,                              !- Name
  Wall,                                   !- Surface Type
  ,                                       !- Construction Name
  {7a7f1d66-c5b4-4531-9c65-e9a1ee61b9f9}, !- Space Name
  Outdoors,                               !- Outside Boundary Condition
  ,                                       !- Outside Boundary Condition Object
  SunExposed,                             !- Sun Exposure
  WindExposed,                            !- Wind Exposure
  ,                                       !- View Factor to Ground
  ,                                       !- Number of Vertices
  0, -12.9315688143396, 2.4384,           !- X,Y,Z Vertex 1 {m}
  0, -12.9315688143396, 0,                !- X,Y,Z Vertex 2 {m}
  6.46578440716979, -12.9315688143396, 0, !- X,Y,Z Vertex 3 {m}
  6.46578440716979, -12.9315688143396, 2.4384; !- X,Y,Z Vertex 4 {m}

OS:Surface,
  {72ad0998-3385-4a4e-b7a0-c79e25197bd9}, !- Handle
  Surface 6,                              !- Name
  RoofCeiling,                            !- Surface Type
  ,                                       !- Construction Name
  {7a7f1d66-c5b4-4531-9c65-e9a1ee61b9f9}, !- Space Name
  Surface,                                !- Outside Boundary Condition
  {97313f85-6d5f-4ed1-b1eb-1e9bf8472719}, !- Outside Boundary Condition Object
  NoSun,                                  !- Sun Exposure
  NoWind,                                 !- Wind Exposure
  ,                                       !- View Factor to Ground
  ,                                       !- Number of Vertices
  6.46578440716979, -12.9315688143396, 2.4384, !- X,Y,Z Vertex 1 {m}
  6.46578440716979, 0, 2.4384,            !- X,Y,Z Vertex 2 {m}
  0, 0, 2.4384,                           !- X,Y,Z Vertex 3 {m}
  0, -12.9315688143396, 2.4384;           !- X,Y,Z Vertex 4 {m}

OS:SpaceType,
  {9154df90-0049-41db-88ad-4f066e41112a}, !- Handle
  Space Type 1,                           !- Name
  ,                                       !- Default Construction Set Name
  ,                                       !- Default Schedule Set Name
  ,                                       !- Group Rendering Name
  ,                                       !- Design Specification Outdoor Air Object Name
  ,                                       !- Standards Building Type
  living;                                 !- Standards Space Type

OS:ThermalZone,
  {7b64a3fd-adf0-4be6-9e6c-c723bd587c69}, !- Handle
  living zone|unit 2,                     !- Name
  ,                                       !- Multiplier
  ,                                       !- Ceiling Height {m}
  ,                                       !- Volume {m3}
  ,                                       !- Floor Area {m2}
  ,                                       !- Zone Inside Convection Algorithm
  ,                                       !- Zone Outside Convection Algorithm
  ,                                       !- Zone Conditioning Equipment List Name
  {8ef7d65b-1ca4-4cb0-824b-c5499e41aa47}, !- Zone Air Inlet Port List
  {a0261e31-8dcd-40af-b800-56137ef03c41}, !- Zone Air Exhaust Port List
  {9bd991de-8446-459f-854a-2802392a7564}, !- Zone Air Node Name
  {e265cba5-b3c6-4f97-968c-5babae61942f}, !- Zone Return Air Port List
  ,                                       !- Primary Daylighting Control Name
  ,                                       !- Fraction of Zone Controlled by Primary Daylighting Control
  ,                                       !- Secondary Daylighting Control Name
  ,                                       !- Fraction of Zone Controlled by Secondary Daylighting Control
  ,                                       !- Illuminance Map Name
  ,                                       !- Group Rendering Name
  ,                                       !- Thermostat Name
  No;                                     !- Use Ideal Air Loads

OS:Node,
  {3bc696ca-8bc6-4cb2-91b8-a551f6868a41}, !- Handle
  Node 2,                                 !- Name
  {9bd991de-8446-459f-854a-2802392a7564}, !- Inlet Port
  ;                                       !- Outlet Port

OS:Connection,
  {9bd991de-8446-459f-854a-2802392a7564}, !- Handle
  {f490fcec-6099-4b09-958a-090da6efd3bd}, !- Name
  {7b64a3fd-adf0-4be6-9e6c-c723bd587c69}, !- Source Object
  11,                                     !- Outlet Port
  {3bc696ca-8bc6-4cb2-91b8-a551f6868a41}, !- Target Object
  2;                                      !- Inlet Port

OS:PortList,
  {8ef7d65b-1ca4-4cb0-824b-c5499e41aa47}, !- Handle
  {b31675d9-e610-49fd-bbf8-dfd495d4d9c0}, !- Name
  {7b64a3fd-adf0-4be6-9e6c-c723bd587c69}, !- HVAC Component
  {f4c81430-3b8e-40ff-8b97-d8afdac31cff}; !- Port 1

OS:PortList,
  {a0261e31-8dcd-40af-b800-56137ef03c41}, !- Handle
  {0ed23008-af1b-4a9c-a18e-dca156df4d93}, !- Name
  {7b64a3fd-adf0-4be6-9e6c-c723bd587c69}; !- HVAC Component

OS:PortList,
  {e265cba5-b3c6-4f97-968c-5babae61942f}, !- Handle
  {df7c1510-56b8-45bb-8684-97cb2f245d6a}, !- Name
  {7b64a3fd-adf0-4be6-9e6c-c723bd587c69}, !- HVAC Component
  {2f08a445-3dab-4f38-8187-059267e28d28}; !- Port 1

OS:Sizing:Zone,
  {0d60b31b-eefe-4993-be71-3ec3d45815db}, !- Handle
  {7b64a3fd-adf0-4be6-9e6c-c723bd587c69}, !- Zone or ZoneList Name
  SupplyAirTemperature,                   !- Zone Cooling Design Supply Air Temperature Input Method
  14,                                     !- Zone Cooling Design Supply Air Temperature {C}
  11.11,                                  !- Zone Cooling Design Supply Air Temperature Difference {deltaC}
  SupplyAirTemperature,                   !- Zone Heating Design Supply Air Temperature Input Method
  40,                                     !- Zone Heating Design Supply Air Temperature {C}
  11.11,                                  !- Zone Heating Design Supply Air Temperature Difference {deltaC}
  0.0085,                                 !- Zone Cooling Design Supply Air Humidity Ratio {kg-H2O/kg-air}
  0.008,                                  !- Zone Heating Design Supply Air Humidity Ratio {kg-H2O/kg-air}
  ,                                       !- Zone Heating Sizing Factor
  ,                                       !- Zone Cooling Sizing Factor
  DesignDay,                              !- Cooling Design Air Flow Method
  ,                                       !- Cooling Design Air Flow Rate {m3/s}
  ,                                       !- Cooling Minimum Air Flow per Zone Floor Area {m3/s-m2}
  ,                                       !- Cooling Minimum Air Flow {m3/s}
  ,                                       !- Cooling Minimum Air Flow Fraction
  DesignDay,                              !- Heating Design Air Flow Method
  ,                                       !- Heating Design Air Flow Rate {m3/s}
  ,                                       !- Heating Maximum Air Flow per Zone Floor Area {m3/s-m2}
  ,                                       !- Heating Maximum Air Flow {m3/s}
  ,                                       !- Heating Maximum Air Flow Fraction
  ,                                       !- Design Zone Air Distribution Effectiveness in Cooling Mode
  ,                                       !- Design Zone Air Distribution Effectiveness in Heating Mode
  No,                                     !- Account for Dedicated Outdoor Air System
  NeutralSupplyAir,                       !- Dedicated Outdoor Air System Control Strategy
  autosize,                               !- Dedicated Outdoor Air Low Setpoint Temperature for Design {C}
  autosize;                               !- Dedicated Outdoor Air High Setpoint Temperature for Design {C}

OS:ZoneHVAC:EquipmentList,
  {0117ddc8-0d26-48dc-98fd-8e54b03369a0}, !- Handle
  Zone HVAC Equipment List 2,             !- Name
  {7b64a3fd-adf0-4be6-9e6c-c723bd587c69}, !- Thermal Zone
  {d628c8bd-fe6f-40f4-b3b2-f0a1a186803d}, !- Zone Equipment 1
  1,                                      !- Zone Equipment Cooling Sequence 1
  1;                                      !- Zone Equipment Heating or No-Load Sequence 1

OS:Space,
  {9ec94ce7-0d0a-470b-9e04-db7cbd49baee}, !- Handle
  living space|unit 2|story 1,            !- Name
  {9154df90-0049-41db-88ad-4f066e41112a}, !- Space Type Name
  ,                                       !- Default Construction Set Name
  ,                                       !- Default Schedule Set Name
  -0,                                     !- Direction of Relative North {deg}
  0,                                      !- X Origin {m}
  0,                                      !- Y Origin {m}
  0,                                      !- Z Origin {m}
  ,                                       !- Building Story Name
  {7b64a3fd-adf0-4be6-9e6c-c723bd587c69}, !- Thermal Zone Name
  ,                                       !- Part of Total Floor Area
  ,                                       !- Design Specification Outdoor Air Object Name
  {bce352be-1bf1-461f-b36a-52fd9f3698f7}; !- Building Unit Name

OS:Surface,
  {31833ab5-300f-4273-8a19-4ef3a960fe38}, !- Handle
  Surface 12,                             !- Name
  Wall,                                   !- Surface Type
  ,                                       !- Construction Name
  {9ec94ce7-0d0a-470b-9e04-db7cbd49baee}, !- Space Name
  Surface,                                !- Outside Boundary Condition
  {085e127d-c29c-48a8-a236-88af5eed3350}, !- Outside Boundary Condition Object
  NoSun,                                  !- Sun Exposure
  NoWind,                                 !- Wind Exposure
  ,                                       !- View Factor to Ground
  ,                                       !- Number of Vertices
  12.9315688143396, -12.9315688143396, 2.4384, !- X,Y,Z Vertex 1 {m}
  12.9315688143396, -12.9315688143396, 0, !- X,Y,Z Vertex 2 {m}
  12.9315688143396, 0, 0,                 !- X,Y,Z Vertex 3 {m}
  12.9315688143396, 0, 2.4384;            !- X,Y,Z Vertex 4 {m}

OS:Surface,
  {ad51543c-8b1c-4dac-9814-1dfa198efb1e}, !- Handle
  Surface 13,                             !- Name
  Floor,                                  !- Surface Type
  ,                                       !- Construction Name
  {9ec94ce7-0d0a-470b-9e04-db7cbd49baee}, !- Space Name
  Foundation,                             !- Outside Boundary Condition
  ,                                       !- Outside Boundary Condition Object
  NoSun,                                  !- Sun Exposure
  NoWind,                                 !- Wind Exposure
  ,                                       !- View Factor to Ground
  ,                                       !- Number of Vertices
  6.46578440716979, -12.9315688143396, 0, !- X,Y,Z Vertex 1 {m}
  6.46578440716979, 0, 0,                 !- X,Y,Z Vertex 2 {m}
  12.9315688143396, 0, 0,                 !- X,Y,Z Vertex 3 {m}
  12.9315688143396, -12.9315688143396, 0; !- X,Y,Z Vertex 4 {m}

OS:Surface,
  {910e71d8-0053-4868-820f-300f65650d4f}, !- Handle
  Surface 14,                             !- Name
  Wall,                                   !- Surface Type
  ,                                       !- Construction Name
  {9ec94ce7-0d0a-470b-9e04-db7cbd49baee}, !- Space Name
  Surface,                                !- Outside Boundary Condition
  {75249111-c6a5-4364-9bda-f472687adf10}, !- Outside Boundary Condition Object
  NoSun,                                  !- Sun Exposure
  NoWind,                                 !- Wind Exposure
  ,                                       !- View Factor to Ground
  ,                                       !- Number of Vertices
  6.46578440716979, 0, 2.4384,            !- X,Y,Z Vertex 1 {m}
  6.46578440716979, 0, 0,                 !- X,Y,Z Vertex 2 {m}
  6.46578440716979, -12.9315688143396, 0, !- X,Y,Z Vertex 3 {m}
  6.46578440716979, -12.9315688143396, 2.4384; !- X,Y,Z Vertex 4 {m}

OS:Surface,
  {103c049c-ad5e-4a07-bc94-d04728993fb9}, !- Handle
  Surface 15,                             !- Name
  Wall,                                   !- Surface Type
  ,                                       !- Construction Name
  {9ec94ce7-0d0a-470b-9e04-db7cbd49baee}, !- Space Name
  Outdoors,                               !- Outside Boundary Condition
  ,                                       !- Outside Boundary Condition Object
  SunExposed,                             !- Sun Exposure
  WindExposed,                            !- Wind Exposure
  ,                                       !- View Factor to Ground
  ,                                       !- Number of Vertices
  12.9315688143396, 0, 2.4384,            !- X,Y,Z Vertex 1 {m}
  12.9315688143396, 0, 0,                 !- X,Y,Z Vertex 2 {m}
  6.46578440716979, 0, 0,                 !- X,Y,Z Vertex 3 {m}
  6.46578440716979, 0, 2.4384;            !- X,Y,Z Vertex 4 {m}

OS:Surface,
  {5c0941d3-d649-48d0-bcf7-396b396bd070}, !- Handle
  Surface 16,                             !- Name
  Wall,                                   !- Surface Type
  ,                                       !- Construction Name
  {9ec94ce7-0d0a-470b-9e04-db7cbd49baee}, !- Space Name
  Outdoors,                               !- Outside Boundary Condition
  ,                                       !- Outside Boundary Condition Object
  SunExposed,                             !- Sun Exposure
  WindExposed,                            !- Wind Exposure
  ,                                       !- View Factor to Ground
  ,                                       !- Number of Vertices
  6.46578440716979, -12.9315688143396, 2.4384, !- X,Y,Z Vertex 1 {m}
  6.46578440716979, -12.9315688143396, 0, !- X,Y,Z Vertex 2 {m}
  12.9315688143396, -12.9315688143396, 0, !- X,Y,Z Vertex 3 {m}
  12.9315688143396, -12.9315688143396, 2.4384; !- X,Y,Z Vertex 4 {m}

OS:Surface,
  {352ad90c-ad6a-419a-ba5d-f19f8c7d7771}, !- Handle
  Surface 17,                             !- Name
  RoofCeiling,                            !- Surface Type
  ,                                       !- Construction Name
  {9ec94ce7-0d0a-470b-9e04-db7cbd49baee}, !- Space Name
  Surface,                                !- Outside Boundary Condition
  {ca81f27e-d10a-4c4e-a8d2-22a39316a3b2}, !- Outside Boundary Condition Object
  NoSun,                                  !- Sun Exposure
  NoWind,                                 !- Wind Exposure
  ,                                       !- View Factor to Ground
  ,                                       !- Number of Vertices
  12.9315688143396, -12.9315688143396, 2.4384, !- X,Y,Z Vertex 1 {m}
  12.9315688143396, 0, 2.4384,            !- X,Y,Z Vertex 2 {m}
  6.46578440716979, 0, 2.4384,            !- X,Y,Z Vertex 3 {m}
  6.46578440716979, -12.9315688143396, 2.4384; !- X,Y,Z Vertex 4 {m}

OS:ThermalZone,
  {f7778f37-7f36-406e-aa77-f54512517919}, !- Handle
  living zone|unit 3,                     !- Name
  ,                                       !- Multiplier
  ,                                       !- Ceiling Height {m}
  ,                                       !- Volume {m3}
  ,                                       !- Floor Area {m2}
  ,                                       !- Zone Inside Convection Algorithm
  ,                                       !- Zone Outside Convection Algorithm