!- NOTE: Auto-generated from /test/osw_files/SFA_4units_1story_SL_UA_3Beds_2Baths_Denver_Furnace_NoSetpoints.osw

OS:Version,
  {baf7ec59-e0e6-4104-8f32-84c56d9729b1}, !- Handle
  2.6.2;                                  !- Version Identifier

OS:Building,
  {4ac71eee-9d66-4f9e-885f-64a1b1f0014d}, !- Handle
  Building 1,                             !- Name
  ,                                       !- Building Sector Type
  0,                                      !- North Axis {deg}
  ,                                       !- Nominal Floor to Floor Height {m}
  ,                                       !- Space Type Name
  ,                                       !- Default Construction Set Name
  ,                                       !- Default Schedule Set Name
  1,                                      !- Standards Number of Stories
  1,                                      !- Standards Number of Above Ground Stories
  singlefamilyattached,                   !- Standards Building Type
  4;                                      !- Standards Number of Living Units

OS:Facility,
  {2139642f-7966-446f-be5d-c61b96f3a198}; !- Handle

OS:Site,
  {aa5ee012-aa22-40ab-8c86-75d38c04c1b9}, !- Handle
  Denver Intl Ap_CO_USA,                  !- Name
  39.83,                                  !- Latitude {deg}
  -104.65,                                !- Longitude {deg}
  -7,                                     !- Time Zone {hr}
  1650,                                   !- Elevation {m}
  ;                                       !- Terrain

OS:SimulationControl,
  {b096ee80-fac3-47cb-8177-75d558d77178}, !- Handle
  ,                                       !- Do Zone Sizing Calculation
  ,                                       !- Do System Sizing Calculation
  ,                                       !- Do Plant Sizing Calculation
  No;                                     !- Run Simulation for Sizing Periods

OS:Sizing:Parameters,
  {814ce832-f994-4cf5-a083-40c21d5deb5b}, !- Handle
  1.25,                                   !- Heating Sizing Factor
  1.15;                                   !- Cooling Sizing Factor

OS:Timestep,
  {d7cf57b2-0aa2-40b5-be53-cb3547863d67}, !- Handle
  6;                                      !- Number of Timesteps per Hour

OS:ShadowCalculation,
  {0acab4dc-a30b-41d2-b5e1-e77ed30b1871}, !- Handle
  20,                                     !- Calculation Frequency
  200;                                    !- Maximum Figures in Shadow Overlap Calculations

OS:HeatBalanceAlgorithm,
  {0e42afc0-d4f9-412e-bd4b-17eb48db9547}, !- Handle
  ConductionTransferFunction,             !- Algorithm
  200;                                    !- Surface Temperature Upper Limit {C}

OS:RunPeriod,
  {768c3d9c-6ca3-4ce1-a89c-757fffe57c45}, !- Handle
  Run Period 1,                           !- Name
  1,                                      !- Begin Month
  1,                                      !- Begin Day of Month
  12,                                     !- End Month
  31,                                     !- End Day of Month
  ,                                       !- Use Weather File Holidays and Special Days
  ,                                       !- Use Weather File Daylight Saving Period
  ,                                       !- Apply Weekend Holiday Rule
  ,                                       !- Use Weather File Rain Indicators
  ,                                       !- Use Weather File Snow Indicators
  ;                                       !- Number of Times Runperiod to be Repeated

OS:LifeCycleCost:Parameters,
  {19ead599-11f3-4964-a77a-2f665916fa5c}, !- Handle
  ,                                       !- Analysis Type
  ,                                       !- Discounting Convention
  ,                                       !- Inflation Approach
  ,                                       !- Real Discount Rate
  ,                                       !- Nominal Discount Rate
  ,                                       !- Inflation
  ,                                       !- Base Date Month
  ,                                       !- Base Date Year
  ,                                       !- Service Date Month
  ,                                       !- Service Date Year
  ;                                       !- Length of Study Period in Years

OS:ThermalZone,
  {f44c73b3-f501-4be4-9ceb-600a1610537c}, !- Handle
  living zone,                            !- Name
  ,                                       !- Multiplier
  ,                                       !- Ceiling Height {m}
  ,                                       !- Volume {m3}
  ,                                       !- Floor Area {m2}
  ,                                       !- Zone Inside Convection Algorithm
  ,                                       !- Zone Outside Convection Algorithm
  ,                                       !- Zone Conditioning Equipment List Name
  {647042e0-9734-4a47-85da-9a525cce2b85}, !- Zone Air Inlet Port List
  {dc4c8ffe-cafc-44fb-921b-8b43d890248d}, !- Zone Air Exhaust Port List
  {3dbf0a00-2d73-448b-ba49-b2b81a939037}, !- Zone Air Node Name
  {9a990b15-17a9-42e7-94b3-81c8c49f5c90}, !- Zone Return Air Port List
  ,                                       !- Primary Daylighting Control Name
  ,                                       !- Fraction of Zone Controlled by Primary Daylighting Control
  ,                                       !- Secondary Daylighting Control Name
  ,                                       !- Fraction of Zone Controlled by Secondary Daylighting Control
  ,                                       !- Illuminance Map Name
  ,                                       !- Group Rendering Name
  ,                                       !- Thermostat Name
  No;                                     !- Use Ideal Air Loads

OS:Node,
  {9d1827e2-7d44-4185-8148-54cf98c92dd0}, !- Handle
  Node 1,                                 !- Name
  {3dbf0a00-2d73-448b-ba49-b2b81a939037}, !- Inlet Port
  ;                                       !- Outlet Port

OS:Connection,
  {3dbf0a00-2d73-448b-ba49-b2b81a939037}, !- Handle
  {3dd7ad91-704b-49b5-972a-982ce28a434a}, !- Name
  {f44c73b3-f501-4be4-9ceb-600a1610537c}, !- Source Object
  11,                                     !- Outlet Port
  {9d1827e2-7d44-4185-8148-54cf98c92dd0}, !- Target Object
  2;                                      !- Inlet Port

OS:PortList,
  {647042e0-9734-4a47-85da-9a525cce2b85}, !- Handle
  {b0b77054-7a7a-43d0-bffe-d08da79120fe}, !- Name
  {f44c73b3-f501-4be4-9ceb-600a1610537c}, !- HVAC Component
  {943750a3-9999-48d4-8bc5-77fd388e97e9}; !- Port 1

OS:PortList,
  {dc4c8ffe-cafc-44fb-921b-8b43d890248d}, !- Handle
  {dfb7982c-1a55-46a2-894d-009edcdd2798}, !- Name
  {f44c73b3-f501-4be4-9ceb-600a1610537c}; !- HVAC Component

OS:PortList,
  {9a990b15-17a9-42e7-94b3-81c8c49f5c90}, !- Handle
  {47536701-f066-4711-81d2-f075db0e4986}, !- Name
  {f44c73b3-f501-4be4-9ceb-600a1610537c}, !- HVAC Component
  {d653bbac-debb-44d8-8a0d-562a269f9251}; !- Port 1

OS:Sizing:Zone,
  {831ae467-794e-4396-b667-72c72ddf277c}, !- Handle
  {f44c73b3-f501-4be4-9ceb-600a1610537c}, !- Zone or ZoneList Name
  SupplyAirTemperature,                   !- Zone Cooling Design Supply Air Temperature Input Method
  14,                                     !- Zone Cooling Design Supply Air Temperature {C}
  11.11,                                  !- Zone Cooling Design Supply Air Temperature Difference {deltaC}
  SupplyAirTemperature,                   !- Zone Heating Design Supply Air Temperature Input Method
  40,                                     !- Zone Heating Design Supply Air Temperature {C}
  11.11,                                  !- Zone Heating Design Supply Air Temperature Difference {deltaC}
  0.0085,                                 !- Zone Cooling Design Supply Air Humidity Ratio {kg-H2O/kg-air}
  0.008,                                  !- Zone Heating Design Supply Air Humidity Ratio {kg-H2O/kg-air}
  ,                                       !- Zone Heating Sizing Factor
  ,                                       !- Zone Cooling Sizing Factor
  DesignDay,                              !- Cooling Design Air Flow Method
  ,                                       !- Cooling Design Air Flow Rate {m3/s}
  ,                                       !- Cooling Minimum Air Flow per Zone Floor Area {m3/s-m2}
  ,                                       !- Cooling Minimum Air Flow {m3/s}
  ,                                       !- Cooling Minimum Air Flow Fraction
  DesignDay,                              !- Heating Design Air Flow Method
  ,                                       !- Heating Design Air Flow Rate {m3/s}
  ,                                       !- Heating Maximum Air Flow per Zone Floor Area {m3/s-m2}
  ,                                       !- Heating Maximum Air Flow {m3/s}
  ,                                       !- Heating Maximum Air Flow Fraction
  ,                                       !- Design Zone Air Distribution Effectiveness in Cooling Mode
  ,                                       !- Design Zone Air Distribution Effectiveness in Heating Mode
  No,                                     !- Account for Dedicated Outdoor Air System
  NeutralSupplyAir,                       !- Dedicated Outdoor Air System Control Strategy
  autosize,                               !- Dedicated Outdoor Air Low Setpoint Temperature for Design {C}
  autosize;                               !- Dedicated Outdoor Air High Setpoint Temperature for Design {C}

OS:ZoneHVAC:EquipmentList,
  {3e2ba929-563d-4f45-a6b6-a55eba5f543d}, !- Handle
  Zone HVAC Equipment List 1,             !- Name
  {f44c73b3-f501-4be4-9ceb-600a1610537c}, !- Thermal Zone
  SequentialLoad,                         !- Load Distribution Scheme
  {233fa56b-ca79-4a76-af5f-433370d0f290}, !- Zone Equipment 1
  1,                                      !- Zone Equipment Cooling Sequence 1
  1;                                      !- Zone Equipment Heating or No-Load Sequence 1

OS:Space,
  {9626c1b5-2435-4c7e-b251-d8e5730dd9d2}, !- Handle
  living space,                           !- Name
  {dcc46b70-6fc3-4233-ba68-cef3061221ea}, !- Space Type Name
  ,                                       !- Default Construction Set Name
  ,                                       !- Default Schedule Set Name
  ,                                       !- Direction of Relative North {deg}
  ,                                       !- X Origin {m}
  ,                                       !- Y Origin {m}
  ,                                       !- Z Origin {m}
  ,                                       !- Building Story Name
  {f44c73b3-f501-4be4-9ceb-600a1610537c}, !- Thermal Zone Name
  ,                                       !- Part of Total Floor Area
  ,                                       !- Design Specification Outdoor Air Object Name
  {ad5b842a-c3cc-40ac-a952-cc4d4b32f4d7}; !- Building Unit Name

OS:Surface,
  {dd3b408b-a99d-46cf-ae97-d7be523886d2}, !- Handle
  Surface 1,                              !- Name
  Floor,                                  !- Surface Type
  ,                                       !- Construction Name
  {9626c1b5-2435-4c7e-b251-d8e5730dd9d2}, !- Space Name
  Foundation,                             !- Outside Boundary Condition
  ,                                       !- Outside Boundary Condition Object
  NoSun,                                  !- Sun Exposure
  NoWind,                                 !- Wind Exposure
  ,                                       !- View Factor to Ground
  ,                                       !- Number of Vertices
  0, -12.9315688143396, 0,                !- X,Y,Z Vertex 1 {m}
  0, 0, 0,                                !- X,Y,Z Vertex 2 {m}
  6.46578440716979, 0, 0,                 !- X,Y,Z Vertex 3 {m}
  6.46578440716979, -12.9315688143396, 0; !- X,Y,Z Vertex 4 {m}

OS:Surface,
  {3b271a1c-70f2-4380-8861-5c2f21ab3fe3}, !- Handle
  Surface 2,                              !- Name
  Wall,                                   !- Surface Type
  ,                                       !- Construction Name
  {9626c1b5-2435-4c7e-b251-d8e5730dd9d2}, !- Space Name
  Outdoors,                               !- Outside Boundary Condition
  ,                                       !- Outside Boundary Condition Object
  SunExposed,                             !- Sun Exposure
  WindExposed,                            !- Wind Exposure
  ,                                       !- View Factor to Ground
  ,                                       !- Number of Vertices
  0, 0, 2.4384,                           !- X,Y,Z Vertex 1 {m}
  0, 0, 0,                                !- X,Y,Z Vertex 2 {m}
  0, -12.9315688143396, 0,                !- X,Y,Z Vertex 3 {m}
  0, -12.9315688143396, 2.4384;           !- X,Y,Z Vertex 4 {m}

OS:Surface,
  {62bf35eb-18e8-46c0-ae44-ba1b7e290b0c}, !- Handle
  Surface 3,                              !- Name
  Wall,                                   !- Surface Type
  ,                                       !- Construction Name
  {9626c1b5-2435-4c7e-b251-d8e5730dd9d2}, !- Space Name
  Outdoors,                               !- Outside Boundary Condition
  ,                                       !- Outside Boundary Condition Object
  SunExposed,                             !- Sun Exposure
  WindExposed,                            !- Wind Exposure
  ,                                       !- View Factor to Ground
  ,                                       !- Number of Vertices
  6.46578440716979, 0, 2.4384,            !- X,Y,Z Vertex 1 {m}
  6.46578440716979, 0, 0,                 !- X,Y,Z Vertex 2 {m}
  0, 0, 0,                                !- X,Y,Z Vertex 3 {m}
  0, 0, 2.4384;                           !- X,Y,Z Vertex 4 {m}

OS:Surface,
  {bbbb5fba-f712-4619-9232-c24cbf2a5dee}, !- Handle
  Surface 4,                              !- Name
  Wall,                                   !- Surface Type
  ,                                       !- Construction Name
  {9626c1b5-2435-4c7e-b251-d8e5730dd9d2}, !- Space Name
  Surface,                                !- Outside Boundary Condition
  {26687419-deeb-4ef3-8365-a881b66d3837}, !- Outside Boundary Condition Object
  NoSun,                                  !- Sun Exposure
  NoWind,                                 !- Wind Exposure
  ,                                       !- View Factor to Ground
  ,                                       !- Number of Vertices
  6.46578440716979, -12.9315688143396, 2.4384, !- X,Y,Z Vertex 1 {m}
  6.46578440716979, -12.9315688143396, 0, !- X,Y,Z Vertex 2 {m}
  6.46578440716979, 0, 0,                 !- X,Y,Z Vertex 3 {m}
  6.46578440716979, 0, 2.4384;            !- X,Y,Z Vertex 4 {m}

OS:Surface,
  {f6f21d52-988c-4928-9505-4f560e79a4b7}, !- Handle
  Surface 5,                              !- Name
  Wall,                                   !- Surface Type
  ,                                       !- Construction Name
  {9626c1b5-2435-4c7e-b251-d8e5730dd9d2}, !- Space Name
  Outdoors,                               !- Outside Boundary Condition
  ,                                       !- Outside Boundary Condition Object
  SunExposed,                             !- Sun Exposure
  WindExposed,                            !- Wind Exposure
  ,                                       !- View Factor to Ground
  ,                                       !- Number of Vertices
  0, -12.9315688143396, 2.4384,           !- X,Y,Z Vertex 1 {m}
  0, -12.9315688143396, 0,                !- X,Y,Z Vertex 2 {m}
  6.46578440716979, -12.9315688143396, 0, !- X,Y,Z Vertex 3 {m}
  6.46578440716979, -12.9315688143396, 2.4384; !- X,Y,Z Vertex 4 {m}

OS:Surface,
  {7b0a26a7-1f16-4ca8-b04e-26792ffe8c7b}, !- Handle
  Surface 6,                              !- Name
  RoofCeiling,                            !- Surface Type
  ,                                       !- Construction Name
  {9626c1b5-2435-4c7e-b251-d8e5730dd9d2}, !- Space Name
  Surface,                                !- Outside Boundary Condition
  {81f096d5-cf88-4f9d-8977-54e549efcc04}, !- Outside Boundary Condition Object
  NoSun,                                  !- Sun Exposure
  NoWind,                                 !- Wind Exposure
  ,                                       !- View Factor to Ground
  ,                                       !- Number of Vertices
  6.46578440716979, -12.9315688143396, 2.4384, !- X,Y,Z Vertex 1 {m}
  6.46578440716979, 0, 2.4384,            !- X,Y,Z Vertex 2 {m}
  0, 0, 2.4384,                           !- X,Y,Z Vertex 3 {m}
  0, -12.9315688143396, 2.4384;           !- X,Y,Z Vertex 4 {m}

OS:SpaceType,
  {dcc46b70-6fc3-4233-ba68-cef3061221ea}, !- Handle
  Space Type 1,                           !- Name
  ,                                       !- Default Construction Set Name
  ,                                       !- Default Schedule Set Name
  ,                                       !- Group Rendering Name
  ,                                       !- Design Specification Outdoor Air Object Name
  ,                                       !- Standards Building Type
  living;                                 !- Standards Space Type

OS:ThermalZone,
  {c5b61762-bca1-469e-a117-80107d92b45a}, !- Handle
  living zone|unit 2,                     !- Name
  ,                                       !- Multiplier
  ,                                       !- Ceiling Height {m}
  ,                                       !- Volume {m3}
  ,                                       !- Floor Area {m2}
  ,                                       !- Zone Inside Convection Algorithm
  ,                                       !- Zone Outside Convection Algorithm
  ,                                       !- Zone Conditioning Equipment List Name
  {1077c9af-07d3-4bc9-8ecd-932338163e55}, !- Zone Air Inlet Port List
  {c8c79ef7-6fd3-4d91-88ac-e13aea9b8198}, !- Zone Air Exhaust Port List
  {4775b29b-050b-4b6b-a5aa-f74a37d999bf}, !- Zone Air Node Name
  {cf3b543a-7535-4b6f-b01e-c403e51f24b9}, !- Zone Return Air Port List
  ,                                       !- Primary Daylighting Control Name
  ,                                       !- Fraction of Zone Controlled by Primary Daylighting Control
  ,                                       !- Secondary Daylighting Control Name
  ,                                       !- Fraction of Zone Controlled by Secondary Daylighting Control
  ,                                       !- Illuminance Map Name
  ,                                       !- Group Rendering Name
  ,                                       !- Thermostat Name
  No;                                     !- Use Ideal Air Loads

OS:Node,
  {07cf85f3-b26b-45f2-9cd7-42f1ab855ed1}, !- Handle
  Node 2,                                 !- Name
  {4775b29b-050b-4b6b-a5aa-f74a37d999bf}, !- Inlet Port
  ;                                       !- Outlet Port

OS:Connection,
  {4775b29b-050b-4b6b-a5aa-f74a37d999bf}, !- Handle
  {400ec8d8-d2fd-40eb-ae72-7132c0a6a3b8}, !- Name
  {c5b61762-bca1-469e-a117-80107d92b45a}, !- Source Object
  11,                                     !- Outlet Port
  {07cf85f3-b26b-45f2-9cd7-42f1ab855ed1}, !- Target Object
  2;                                      !- Inlet Port

OS:PortList,
  {1077c9af-07d3-4bc9-8ecd-932338163e55}, !- Handle
  {615b55d4-f1cb-4826-a8df-f45625553ff6}, !- Name
  {c5b61762-bca1-469e-a117-80107d92b45a}, !- HVAC Component
  {aae52004-55e0-49e8-a812-f4e650655276}; !- Port 1

OS:PortList,
  {c8c79ef7-6fd3-4d91-88ac-e13aea9b8198}, !- Handle
  {b9007163-62d1-482d-86a9-d903b68aa97b}, !- Name
  {c5b61762-bca1-469e-a117-80107d92b45a}; !- HVAC Component

OS:PortList,
  {cf3b543a-7535-4b6f-b01e-c403e51f24b9}, !- Handle
  {b9aae2ed-ca80-4922-812f-a4d274af56dd}, !- Name
  {c5b61762-bca1-469e-a117-80107d92b45a}, !- HVAC Component
  {eed9860d-c0c8-45a4-bec1-8f1fa0790024}; !- Port 1

OS:Sizing:Zone,
  {1254ca7e-da97-47f0-88c5-4b0d295a31e8}, !- Handle
  {c5b61762-bca1-469e-a117-80107d92b45a}, !- Zone or ZoneList Name
  SupplyAirTemperature,                   !- Zone Cooling Design Supply Air Temperature Input Method
  14,                                     !- Zone Cooling Design Supply Air Temperature {C}
  11.11,                                  !- Zone Cooling Design Supply Air Temperature Difference {deltaC}
  SupplyAirTemperature,                   !- Zone Heating Design Supply Air Temperature Input Method
  40,                                     !- Zone Heating Design Supply Air Temperature {C}
  11.11,                                  !- Zone Heating Design Supply Air Temperature Difference {deltaC}
  0.0085,                                 !- Zone Cooling Design Supply Air Humidity Ratio {kg-H2O/kg-air}
  0.008,                                  !- Zone Heating Design Supply Air Humidity Ratio {kg-H2O/kg-air}
  ,                                       !- Zone Heating Sizing Factor
  ,                                       !- Zone Cooling Sizing Factor
  DesignDay,                              !- Cooling Design Air Flow Method
  ,                                       !- Cooling Design Air Flow Rate {m3/s}
  ,                                       !- Cooling Minimum Air Flow per Zone Floor Area {m3/s-m2}
  ,                                       !- Cooling Minimum Air Flow {m3/s}
  ,                                       !- Cooling Minimum Air Flow Fraction
  DesignDay,                              !- Heating Design Air Flow Method
  ,                                       !- Heating Design Air Flow Rate {m3/s}
  ,                                       !- Heating Maximum Air Flow per Zone Floor Area {m3/s-m2}
  ,                                       !- Heating Maximum Air Flow {m3/s}
  ,                                       !- Heating Maximum Air Flow Fraction
  ,                                       !- Design Zone Air Distribution Effectiveness in Cooling Mode
  ,                                       !- Design Zone Air Distribution Effectiveness in Heating Mode
  No,                                     !- Account for Dedicated Outdoor Air System
  NeutralSupplyAir,                       !- Dedicated Outdoor Air System Control Strategy
  autosize,                               !- Dedicated Outdoor Air Low Setpoint Temperature for Design {C}
  autosize;                               !- Dedicated Outdoor Air High Setpoint Temperature for Design {C}

OS:ZoneHVAC:EquipmentList,
  {f4b3677a-3cb2-42b7-a8f3-58ed806bc273}, !- Handle
  Zone HVAC Equipment List 2,             !- Name
  {c5b61762-bca1-469e-a117-80107d92b45a}, !- Thermal Zone
  SequentialLoad,                         !- Load Distribution Scheme
  {7e163c13-119e-450a-baa2-6b529bd545f0}, !- Zone Equipment 1
  1,                                      !- Zone Equipment Cooling Sequence 1
  1;                                      !- Zone Equipment Heating or No-Load Sequence 1

OS:Space,
  {484f3c12-1d66-4c7b-84c6-a9b6809885f3}, !- Handle
  living space|unit 2|story 1,            !- Name
  {dcc46b70-6fc3-4233-ba68-cef3061221ea}, !- Space Type Name
  ,                                       !- Default Construction Set Name
  ,                                       !- Default Schedule Set Name
  -0,                                     !- Direction of Relative North {deg}
  0,                                      !- X Origin {m}
  0,                                      !- Y Origin {m}
  0,                                      !- Z Origin {m}
  ,                                       !- Building Story Name
  {c5b61762-bca1-469e-a117-80107d92b45a}, !- Thermal Zone Name
  ,                                       !- Part of Total Floor Area
  ,                                       !- Design Specification Outdoor Air Object Name
  {800ec8a9-e955-4209-b440-196730862420}; !- Building Unit Name

OS:Surface,
  {21f2651d-7813-4dd1-b20c-b7c5fd8341c7}, !- Handle
  Surface 12,                             !- Name
  Floor,                                  !- Surface Type
  ,                                       !- Construction Name
  {484f3c12-1d66-4c7b-84c6-a9b6809885f3}, !- Space Name
  Foundation,                             !- Outside Boundary Condition
  ,                                       !- Outside Boundary Condition Object
  NoSun,                                  !- Sun Exposure
  NoWind,                                 !- Wind Exposure
  ,                                       !- View Factor to Ground
  ,                                       !- Number of Vertices
  6.46578440716979, -12.9315688143396, 0, !- X,Y,Z Vertex 1 {m}
  6.46578440716979, 0, 0,                 !- X,Y,Z Vertex 2 {m}
  12.9315688143396, 0, 0,                 !- X,Y,Z Vertex 3 {m}
  12.9315688143396, -12.9315688143396, 0; !- X,Y,Z Vertex 4 {m}

OS:Surface,
  {26687419-deeb-4ef3-8365-a881b66d3837}, !- Handle
  Surface 13,                             !- Name
  Wall,                                   !- Surface Type
  ,                                       !- Construction Name
  {484f3c12-1d66-4c7b-84c6-a9b6809885f3}, !- Space Name
  Surface,                                !- Outside Boundary Condition
  {bbbb5fba-f712-4619-9232-c24cbf2a5dee}, !- Outside Boundary Condition Object
  NoSun,                                  !- Sun Exposure
  NoWind,                                 !- Wind Exposure
  ,                                       !- View Factor to Ground
  ,                                       !- Number of Vertices
  6.46578440716979, 0, 2.4384,            !- X,Y,Z Vertex 1 {m}
  6.46578440716979, 0, 0,                 !- X,Y,Z Vertex 2 {m}
  6.46578440716979, -12.9315688143396, 0, !- X,Y,Z Vertex 3 {m}
  6.46578440716979, -12.9315688143396, 2.4384; !- X,Y,Z Vertex 4 {m}

OS:Surface,
  {e6af1247-b67e-4e16-b552-42016d43f5b4}, !- Handle
  Surface 14,                             !- Name
  Wall,                                   !- Surface Type
  ,                                       !- Construction Name
  {484f3c12-1d66-4c7b-84c6-a9b6809885f3}, !- Space Name
  Outdoors,                               !- Outside Boundary Condition
  ,                                       !- Outside Boundary Condition Object
  SunExposed,                             !- Sun Exposure
  WindExposed,                            !- Wind Exposure
  ,                                       !- View Factor to Ground
  ,                                       !- Number of Vertices
  12.9315688143396, 0, 2.4384,            !- X,Y,Z Vertex 1 {m}
  12.9315688143396, 0, 0,                 !- X,Y,Z Vertex 2 {m}
  6.46578440716979, 0, 0,                 !- X,Y,Z Vertex 3 {m}
  6.46578440716979, 0, 2.4384;            !- X,Y,Z Vertex 4 {m}

OS:Surface,
  {5c6a7f86-c526-4719-aecb-0faed58595ff}, !- Handle
  Surface 15,                             !- Name
  Wall,                                   !- Surface Type
  ,                                       !- Construction Name
  {484f3c12-1d66-4c7b-84c6-a9b6809885f3}, !- Space Name
  Surface,                                !- Outside Boundary Condition
  {6ee99971-964e-4e6c-bf1d-27ecdf71983c}, !- Outside Boundary Condition Object
  NoSun,                                  !- Sun Exposure
  NoWind,                                 !- Wind Exposure
  ,                                       !- View Factor to Ground
  ,                                       !- Number of Vertices
  12.9315688143396, -12.9315688143396, 2.4384, !- X,Y,Z Vertex 1 {m}
  12.9315688143396, -12.9315688143396, 0, !- X,Y,Z Vertex 2 {m}
  12.9315688143396, 0, 0,                 !- X,Y,Z Vertex 3 {m}
  12.9315688143396, 0, 2.4384;            !- X,Y,Z Vertex 4 {m}

OS:Surface,
  {057bf916-fdce-4faf-825a-766baca6c9a2}, !- Handle
  Surface 16,                             !- Name
  Wall,                                   !- Surface Type
  ,                                       !- Construction Name
  {484f3c12-1d66-4c7b-84c6-a9b6809885f3}, !- Space Name
  Outdoors,                               !- Outside Boundary Condition
  ,                                       !- Outside Boundary Condition Object
  SunExposed,                             !- Sun Exposure
  WindExposed,                            !- Wind Exposure
  ,                                       !- View Factor to Ground
  ,                                       !- Number of Vertices
  6.46578440716979, -12.9315688143396, 2.4384, !- X,Y,Z Vertex 1 {m}
  6.46578440716979, -12.9315688143396, 0, !- X,Y,Z Vertex 2 {m}
  12.9315688143396, -12.9315688143396, 0, !- X,Y,Z Vertex 3 {m}
  12.9315688143396, -12.9315688143396, 2.4384; !- X,Y,Z Vertex 4 {m}

OS:Surface,
  {6822ff1f-d068-4fe8-b9e0-657a8ce64eb1}, !- Handle
  Surface 17,                             !- Name
  RoofCeiling,                            !- Surface Type
  ,                                       !- Construction Name
  {484f3c12-1d66-4c7b-84c6-a9b6809885f3}, !- Space Name
  Surface,                                !- Outside Boundary Condition
  {80e7e414-1054-4ffd-b19c-5c2ce3ee35ae}, !- Outside Boundary Condition Object
  NoSun,                                  !- Sun Exposure
  NoWind,                                 !- Wind Exposure
  ,                                       !- View Factor to Ground
  ,                                       !- Number of Vertices
  12.9315688143396, -12.9315688143396, 2.4384, !- X,Y,Z Vertex 1 {m}
  12.9315688143396, 0, 2.4384,            !- X,Y,Z Vertex 2 {m}
  6.46578440716979, 0, 2.4384,            !- X,Y,Z Vertex 3 {m}
  6.46578440716979, -12.9315688143396, 2.4384; !- X,Y,Z Vertex 4 {m}

OS:ThermalZone,
  {ceed12f2-7a1a-4240-a966-441671a755f9}, !- Handle
  living zone|unit 3,                     !- Name
  ,                                       !- Multiplier
  ,                                       !- Ceiling Height {m}
  ,                                       !- Volume {m3}
  ,                                       !- Floor Area {m2}