!- NOTE: Auto-generated from /test/osw_files/SFA_4units_1story_SL_UA_3Beds_2Baths_Denver_Furnace_CentralAC.osw

OS:Version,
  {ce3dc10c-a3eb-46fc-99e2-d70baa0298c8}, !- Handle
  2.5.0;                                  !- Version Identifier

OS:Building,
  {01f94353-66cf-4562-8899-dc9e41294cb3}, !- Handle
  Building 1,                             !- Name
  ,                                       !- Building Sector Type
  0,                                      !- North Axis {deg}
  ,                                       !- Nominal Floor to Floor Height {m}
  ,                                       !- Space Type Name
  ,                                       !- Default Construction Set Name
  ,                                       !- Default Schedule Set Name
  1,                                      !- Standards Number of Stories
  1,                                      !- Standards Number of Above Ground Stories
  singlefamilyttached,                    !- Standards Building Type
  4;                                      !- Standards Number of Living Units

OS:Facility,
  {507693de-622d-4f2e-be7b-4e1925af3586}; !- Handle

OS:Site,
  {10b5fdab-0cb4-4201-b1c6-7f19f1d18785}, !- Handle
  Denver Intl Ap_CO_USA,                  !- Name
  39.83,                                  !- Latitude {deg}
  -104.65,                                !- Longitude {deg}
  -7,                                     !- Time Zone {hr}
  1650,                                   !- Elevation {m}
  ;                                       !- Terrain

OS:SimulationControl,
  {616e4420-e244-492b-bcd2-ebc09f64a911}, !- Handle
  ,                                       !- Do Zone Sizing Calculation
  ,                                       !- Do System Sizing Calculation
  ,                                       !- Do Plant Sizing Calculation
  No;                                     !- Run Simulation for Sizing Periods

OS:Sizing:Parameters,
  {ab7879c9-66a5-4f8d-938e-c6e25977d8f2}, !- Handle
  1.25,                                   !- Heating Sizing Factor
  1.15;                                   !- Cooling Sizing Factor

OS:Timestep,
  {c3157a9d-89e5-46c6-94f7-b527a511ddf6}, !- Handle
  6;                                      !- Number of Timesteps per Hour

OS:ShadowCalculation,
  {e15e4def-6560-47bb-81b0-d19fdf31ffdd}, !- Handle
  20,                                     !- Calculation Frequency
  200;                                    !- Maximum Figures in Shadow Overlap Calculations

OS:HeatBalanceAlgorithm,
  {72fb4040-a478-4567-8850-587087a5f064}, !- Handle
  ConductionTransferFunction,             !- Algorithm
  200;                                    !- Surface Temperature Upper Limit {C}

OS:RunPeriod,
  {b3dae666-3d37-408e-a979-1128dbbf8af7}, !- Handle
  Run Period 1,                           !- Name
  1,                                      !- Begin Month
  1,                                      !- Begin Day of Month
  12,                                     !- End Month
  31,                                     !- End Day of Month
  ,                                       !- Use Weather File Holidays and Special Days
  ,                                       !- Use Weather File Daylight Saving Period
  ,                                       !- Apply Weekend Holiday Rule
  ,                                       !- Use Weather File Rain Indicators
  ,                                       !- Use Weather File Snow Indicators
  ;                                       !- Number of Times Runperiod to be Repeated

OS:LifeCycleCost:Parameters,
  {06264489-1982-4a71-bdf5-5683a2ac9751}, !- Handle
  ,                                       !- Analysis Type
  ,                                       !- Discounting Convention
  ,                                       !- Inflation Approach
  ,                                       !- Real Discount Rate
  ,                                       !- Nominal Discount Rate
  ,                                       !- Inflation
  ,                                       !- Base Date Month
  ,                                       !- Base Date Year
  ,                                       !- Service Date Month
  ,                                       !- Service Date Year
  ;                                       !- Length of Study Period in Years

OS:ThermalZone,
  {6986a988-fafd-4c2d-9b18-d9b28e887147}, !- Handle
  living zone,                            !- Name
  ,                                       !- Multiplier
  ,                                       !- Ceiling Height {m}
  ,                                       !- Volume {m3}
  ,                                       !- Floor Area {m2}
  ,                                       !- Zone Inside Convection Algorithm
  ,                                       !- Zone Outside Convection Algorithm
  ,                                       !- Zone Conditioning Equipment List Name
  {6d020dc5-3bf7-4cac-8f05-c22cdf7161a4}, !- Zone Air Inlet Port List
  {57c4c820-da1f-4172-9647-afbf77821131}, !- Zone Air Exhaust Port List
  {7333457a-90c3-4c7b-a55f-dceba77f5e94}, !- Zone Air Node Name
  {dba5b9db-efc3-4885-8e2a-9d341957544a}, !- Zone Return Air Node Name
  ,                                       !- Primary Daylighting Control Name
  ,                                       !- Fraction of Zone Controlled by Primary Daylighting Control
  ,                                       !- Secondary Daylighting Control Name
  ,                                       !- Fraction of Zone Controlled by Secondary Daylighting Control
  ,                                       !- Illuminance Map Name
  ,                                       !- Group Rendering Name
  {0d1128b6-b11f-41c3-8ed9-842efe88d8b3}, !- Thermostat Name
  No;                                     !- Use Ideal Air Loads

OS:Node,
  {5ce4b817-1ae6-4eeb-949c-8234d8f1ba86}, !- Handle
  Node 1,                                 !- Name
  {7333457a-90c3-4c7b-a55f-dceba77f5e94}, !- Inlet Port
  ;                                       !- Outlet Port

OS:Connection,
  {7333457a-90c3-4c7b-a55f-dceba77f5e94}, !- Handle
  {13edb000-0059-411f-b83a-73ab4e6955e3}, !- Name
  {6986a988-fafd-4c2d-9b18-d9b28e887147}, !- Source Object
  11,                                     !- Outlet Port
  {5ce4b817-1ae6-4eeb-949c-8234d8f1ba86}, !- Target Object
  2;                                      !- Inlet Port

OS:PortList,
  {6d020dc5-3bf7-4cac-8f05-c22cdf7161a4}, !- Handle
  {de3d3f18-9686-476b-88b2-56e5dbad5beb}, !- Name
  {6986a988-fafd-4c2d-9b18-d9b28e887147}, !- HVAC Component
  {36aaf129-6532-470a-91fb-651a1a5772ad}; !- Port 1

OS:PortList,
  {57c4c820-da1f-4172-9647-afbf77821131}, !- Handle
  {e3b6a7a1-03b1-4ae0-9f10-2973967bc6d2}, !- Name
  {6986a988-fafd-4c2d-9b18-d9b28e887147}; !- HVAC Component

OS:Sizing:Zone,
  {547068b8-a8f3-4181-8426-827458b39d50}, !- Handle
  {6986a988-fafd-4c2d-9b18-d9b28e887147}, !- Zone or ZoneList Name
  SupplyAirTemperature,                   !- Zone Cooling Design Supply Air Temperature Input Method
  14,                                     !- Zone Cooling Design Supply Air Temperature {C}
  11.11,                                  !- Zone Cooling Design Supply Air Temperature Difference {deltaC}
  SupplyAirTemperature,                   !- Zone Heating Design Supply Air Temperature Input Method
  40,                                     !- Zone Heating Design Supply Air Temperature {C}
  11.11,                                  !- Zone Heating Design Supply Air Temperature Difference {deltaC}
  0.0085,                                 !- Zone Cooling Design Supply Air Humidity Ratio {kg-H2O/kg-air}
  0.008,                                  !- Zone Heating Design Supply Air Humidity Ratio {kg-H2O/kg-air}
  ,                                       !- Zone Heating Sizing Factor
  ,                                       !- Zone Cooling Sizing Factor
  DesignDay,                              !- Cooling Design Air Flow Method
  ,                                       !- Cooling Design Air Flow Rate {m3/s}
  ,                                       !- Cooling Minimum Air Flow per Zone Floor Area {m3/s-m2}
  ,                                       !- Cooling Minimum Air Flow {m3/s}
  ,                                       !- Cooling Minimum Air Flow Fraction
  DesignDay,                              !- Heating Design Air Flow Method
  ,                                       !- Heating Design Air Flow Rate {m3/s}
  ,                                       !- Heating Maximum Air Flow per Zone Floor Area {m3/s-m2}
  ,                                       !- Heating Maximum Air Flow {m3/s}
  ,                                       !- Heating Maximum Air Flow Fraction
  ,                                       !- Design Zone Air Distribution Effectiveness in Cooling Mode
  ,                                       !- Design Zone Air Distribution Effectiveness in Heating Mode
  No,                                     !- Account for Dedicated Outdoor Air System
  NeutralSupplyAir,                       !- Dedicated Outdoor Air System Control Strategy
  autosize,                               !- Dedicated Outdoor Air Low Setpoint Temperature for Design {C}
  autosize;                               !- Dedicated Outdoor Air High Setpoint Temperature for Design {C}

OS:ZoneHVAC:EquipmentList,
  {8e0e0f30-67ff-4981-9d99-e11da7c14aaf}, !- Handle
  Zone HVAC Equipment List 1,             !- Name
  {6986a988-fafd-4c2d-9b18-d9b28e887147}, !- Thermal Zone
  {a78155dd-c267-43ce-9b87-029704524bc0}, !- Zone Equipment 1
  1,                                      !- Zone Equipment Cooling Sequence 1
  1;                                      !- Zone Equipment Heating or No-Load Sequence 1

OS:Space,
  {7ba8c332-9956-45b4-ae7f-b441a24526cd}, !- Handle
  living space,                           !- Name
  {adf41d8e-5644-4d05-ac11-f065c1a22771}, !- Space Type Name
  ,                                       !- Default Construction Set Name
  ,                                       !- Default Schedule Set Name
  ,                                       !- Direction of Relative North {deg}
  ,                                       !- X Origin {m}
  ,                                       !- Y Origin {m}
  ,                                       !- Z Origin {m}
  ,                                       !- Building Story Name
  {6986a988-fafd-4c2d-9b18-d9b28e887147}, !- Thermal Zone Name
  ,                                       !- Part of Total Floor Area
  ,                                       !- Design Specification Outdoor Air Object Name
  {fb3cd26c-0991-42ed-bcc9-da47bd1093a7}; !- Building Unit Name

OS:Surface,
  {b2a68440-e265-472c-ba85-8c1c0f678644}, !- Handle
  Surface 1,                              !- Name
  Floor,                                  !- Surface Type
  ,                                       !- Construction Name
  {7ba8c332-9956-45b4-ae7f-b441a24526cd}, !- Space Name
  Foundation,                             !- Outside Boundary Condition
  ,                                       !- Outside Boundary Condition Object
  NoSun,                                  !- Sun Exposure
  NoWind,                                 !- Wind Exposure
  ,                                       !- View Factor to Ground
  ,                                       !- Number of Vertices
  0, -12.9315688143396, 0,                !- X,Y,Z Vertex 1 {m}
  0, 0, 0,                                !- X,Y,Z Vertex 2 {m}
  6.46578440716979, 0, 0,                 !- X,Y,Z Vertex 3 {m}
  6.46578440716979, -12.9315688143396, 0; !- X,Y,Z Vertex 4 {m}

OS:Surface,
  {1b76516e-9117-40d5-8395-13b75ad97a59}, !- Handle
  Surface 2,                              !- Name
  Wall,                                   !- Surface Type
  ,                                       !- Construction Name
  {7ba8c332-9956-45b4-ae7f-b441a24526cd}, !- Space Name
  Outdoors,                               !- Outside Boundary Condition
  ,                                       !- Outside Boundary Condition Object
  SunExposed,                             !- Sun Exposure
  WindExposed,                            !- Wind Exposure
  ,                                       !- View Factor to Ground
  ,                                       !- Number of Vertices
  0, 0, 2.4384,                           !- X,Y,Z Vertex 1 {m}
  0, 0, 0,                                !- X,Y,Z Vertex 2 {m}
  0, -12.9315688143396, 0,                !- X,Y,Z Vertex 3 {m}
  0, -12.9315688143396, 2.4384;           !- X,Y,Z Vertex 4 {m}

OS:Surface,
  {0fac4e70-8086-47eb-a82e-ae45a1ebbae3}, !- Handle
  Surface 3,                              !- Name
  Wall,                                   !- Surface Type
  ,                                       !- Construction Name
  {7ba8c332-9956-45b4-ae7f-b441a24526cd}, !- Space Name
  Outdoors,                               !- Outside Boundary Condition
  ,                                       !- Outside Boundary Condition Object
  SunExposed,                             !- Sun Exposure
  WindExposed,                            !- Wind Exposure
  ,                                       !- View Factor to Ground
  ,                                       !- Number of Vertices
  6.46578440716979, 0, 2.4384,            !- X,Y,Z Vertex 1 {m}
  6.46578440716979, 0, 0,                 !- X,Y,Z Vertex 2 {m}
  0, 0, 0,                                !- X,Y,Z Vertex 3 {m}
  0, 0, 2.4384;                           !- X,Y,Z Vertex 4 {m}

OS:Surface,
  {55d90e67-5c1f-4e0d-97b6-bdea06d8cb7c}, !- Handle
  Surface 4,                              !- Name
  Wall,                                   !- Surface Type
  ,                                       !- Construction Name
  {7ba8c332-9956-45b4-ae7f-b441a24526cd}, !- Space Name
  Surface,                                !- Outside Boundary Condition
  {849da6d1-6f8b-4fc8-9f36-b584a6337632}, !- Outside Boundary Condition Object
  NoSun,                                  !- Sun Exposure
  NoWind,                                 !- Wind Exposure
  ,                                       !- View Factor to Ground
  ,                                       !- Number of Vertices
  6.46578440716979, -12.9315688143396, 2.4384, !- X,Y,Z Vertex 1 {m}
  6.46578440716979, -12.9315688143396, 0, !- X,Y,Z Vertex 2 {m}
  6.46578440716979, 0, 0,                 !- X,Y,Z Vertex 3 {m}
  6.46578440716979, 0, 2.4384;            !- X,Y,Z Vertex 4 {m}

OS:Surface,
  {3ea3ee9a-8090-4c41-ad98-983447bb18d1}, !- Handle
  Surface 5,                              !- Name
  Wall,                                   !- Surface Type
  ,                                       !- Construction Name
  {7ba8c332-9956-45b4-ae7f-b441a24526cd}, !- Space Name
  Outdoors,                               !- Outside Boundary Condition
  ,                                       !- Outside Boundary Condition Object
  SunExposed,                             !- Sun Exposure
  WindExposed,                            !- Wind Exposure
  ,                                       !- View Factor to Ground
  ,                                       !- Number of Vertices
  0, -12.9315688143396, 2.4384,           !- X,Y,Z Vertex 1 {m}
  0, -12.9315688143396, 0,                !- X,Y,Z Vertex 2 {m}
  6.46578440716979, -12.9315688143396, 0, !- X,Y,Z Vertex 3 {m}
  6.46578440716979, -12.9315688143396, 2.4384; !- X,Y,Z Vertex 4 {m}

OS:Surface,
  {1dfedefd-e6bf-4f6a-bcdc-f3122205d0d5}, !- Handle
  Surface 6,                              !- Name
  RoofCeiling,                            !- Surface Type
  ,                                       !- Construction Name
  {7ba8c332-9956-45b4-ae7f-b441a24526cd}, !- Space Name
  Surface,                                !- Outside Boundary Condition
  {e7e7d7e0-e6aa-411d-9105-4110888f0485}, !- Outside Boundary Condition Object
  NoSun,                                  !- Sun Exposure
  NoWind,                                 !- Wind Exposure
  ,                                       !- View Factor to Ground
  ,                                       !- Number of Vertices
  6.46578440716979, -12.9315688143396, 2.4384, !- X,Y,Z Vertex 1 {m}
  6.46578440716979, 0, 2.4384,            !- X,Y,Z Vertex 2 {m}
  0, 0, 2.4384,                           !- X,Y,Z Vertex 3 {m}
  0, -12.9315688143396, 2.4384;           !- X,Y,Z Vertex 4 {m}

OS:SpaceType,
  {adf41d8e-5644-4d05-ac11-f065c1a22771}, !- Handle
  Space Type 1,                           !- Name
  ,                                       !- Default Construction Set Name
  ,                                       !- Default Schedule Set Name
  ,                                       !- Group Rendering Name
  ,                                       !- Design Specification Outdoor Air Object Name
  ,                                       !- Standards Building Type
  living;                                 !- Standards Space Type

OS:ThermalZone,
  {6b0f53cf-a487-4703-a720-630ab320e1af}, !- Handle
  living zone|unit 2,                     !- Name
  ,                                       !- Multiplier
  ,                                       !- Ceiling Height {m}
  ,                                       !- Volume {m3}
  ,                                       !- Floor Area {m2}
  ,                                       !- Zone Inside Convection Algorithm
  ,                                       !- Zone Outside Convection Algorithm
  ,                                       !- Zone Conditioning Equipment List Name
  {cd615070-b7ed-4818-96d6-32122354c883}, !- Zone Air Inlet Port List
  {a5fac6a2-812d-4d55-bfe3-ab7ccd18c9a5}, !- Zone Air Exhaust Port List
  {e4a151f7-cb90-4e97-92d7-e9ebc38f75b9}, !- Zone Air Node Name
  {a7b910fe-301a-4472-8b03-462b8e0aa76a}, !- Zone Return Air Node Name
  ,                                       !- Primary Daylighting Control Name
  ,                                       !- Fraction of Zone Controlled by Primary Daylighting Control
  ,                                       !- Secondary Daylighting Control Name
  ,                                       !- Fraction of Zone Controlled by Secondary Daylighting Control
  ,                                       !- Illuminance Map Name
  ,                                       !- Group Rendering Name
  {555c25b3-c3b6-4720-94aa-dffad3afbee1}, !- Thermostat Name
  No;                                     !- Use Ideal Air Loads

OS:Node,
  {faf42eb5-be3e-4689-bce2-8ce5a733dd6d}, !- Handle
  Node 2,                                 !- Name
  {e4a151f7-cb90-4e97-92d7-e9ebc38f75b9}, !- Inlet Port
  ;                                       !- Outlet Port

OS:Connection,
  {e4a151f7-cb90-4e97-92d7-e9ebc38f75b9}, !- Handle
  {c57d270a-f318-4451-9367-481a4e76f8e2}, !- Name
  {6b0f53cf-a487-4703-a720-630ab320e1af}, !- Source Object
  11,                                     !- Outlet Port
  {faf42eb5-be3e-4689-bce2-8ce5a733dd6d}, !- Target Object
  2;                                      !- Inlet Port

OS:PortList,
  {cd615070-b7ed-4818-96d6-32122354c883}, !- Handle
  {10900962-4a22-4511-a976-a64b70e85878}, !- Name
  {6b0f53cf-a487-4703-a720-630ab320e1af}, !- HVAC Component
  {a11e21ba-d729-4e69-b79e-3b27de7251aa}; !- Port 1

OS:PortList,
  {a5fac6a2-812d-4d55-bfe3-ab7ccd18c9a5}, !- Handle
  {9b914ebc-0950-4e73-a5dc-720a3c123dfc}, !- Name
  {6b0f53cf-a487-4703-a720-630ab320e1af}; !- HVAC Component

OS:Sizing:Zone,
  {9ba2aca7-ac55-4f9f-940b-c79345371605}, !- Handle
  {6b0f53cf-a487-4703-a720-630ab320e1af}, !- Zone or ZoneList Name
  SupplyAirTemperature,                   !- Zone Cooling Design Supply Air Temperature Input Method
  14,                                     !- Zone Cooling Design Supply Air Temperature {C}
  11.11,                                  !- Zone Cooling Design Supply Air Temperature Difference {deltaC}
  SupplyAirTemperature,                   !- Zone Heating Design Supply Air Temperature Input Method
  40,                                     !- Zone Heating Design Supply Air Temperature {C}
  11.11,                                  !- Zone Heating Design Supply Air Temperature Difference {deltaC}
  0.0085,                                 !- Zone Cooling Design Supply Air Humidity Ratio {kg-H2O/kg-air}
  0.008,                                  !- Zone Heating Design Supply Air Humidity Ratio {kg-H2O/kg-air}
  ,                                       !- Zone Heating Sizing Factor
  ,                                       !- Zone Cooling Sizing Factor
  DesignDay,                              !- Cooling Design Air Flow Method
  ,                                       !- Cooling Design Air Flow Rate {m3/s}
  ,                                       !- Cooling Minimum Air Flow per Zone Floor Area {m3/s-m2}
  ,                                       !- Cooling Minimum Air Flow {m3/s}
  ,                                       !- Cooling Minimum Air Flow Fraction
  DesignDay,                              !- Heating Design Air Flow Method
  ,                                       !- Heating Design Air Flow Rate {m3/s}
  ,                                       !- Heating Maximum Air Flow per Zone Floor Area {m3/s-m2}
  ,                                       !- Heating Maximum Air Flow {m3/s}
  ,                                       !- Heating Maximum Air Flow Fraction
  ,                                       !- Design Zone Air Distribution Effectiveness in Cooling Mode
  ,                                       !- Design Zone Air Distribution Effectiveness in Heating Mode
  No,                                     !- Account for Dedicated Outdoor Air System
  NeutralSupplyAir,                       !- Dedicated Outdoor Air System Control Strategy
  autosize,                               !- Dedicated Outdoor Air Low Setpoint Temperature for Design {C}
  autosize;                               !- Dedicated Outdoor Air High Setpoint Temperature for Design {C}

OS:ZoneHVAC:EquipmentList,
  {653c71c2-e8ed-4cba-8c60-6d9d7a6ebee6}, !- Handle
  Zone HVAC Equipment List 2,             !- Name
  {6b0f53cf-a487-4703-a720-630ab320e1af}, !- Thermal Zone
  {f1aeff3d-ec14-4813-8a33-da2a10874698}, !- Zone Equipment 1
  1,                                      !- Zone Equipment Cooling Sequence 1
  1;                                      !- Zone Equipment Heating or No-Load Sequence 1

OS:Space,
  {33a44da5-a10e-4906-bc76-40c9b9f46a4b}, !- Handle
  living space|unit 2|story 1,            !- Name
  {adf41d8e-5644-4d05-ac11-f065c1a22771}, !- Space Type Name
  ,                                       !- Default Construction Set Name
  ,                                       !- Default Schedule Set Name
  -0,                                     !- Direction of Relative North {deg}
  0,                                      !- X Origin {m}
  0,                                      !- Y Origin {m}
  0,                                      !- Z Origin {m}
  ,                                       !- Building Story Name
  {6b0f53cf-a487-4703-a720-630ab320e1af}, !- Thermal Zone Name
  ,                                       !- Part of Total Floor Area
  ,                                       !- Design Specification Outdoor Air Object Name
  {68a7ca49-a5e9-44fd-bf0a-6b1012c25a04}; !- Building Unit Name

OS:Surface,
  {97b31eed-2cdc-4f50-9677-14190fedc931}, !- Handle
  Surface 12,                             !- Name
  Wall,                                   !- Surface Type
  ,                                       !- Construction Name
  {33a44da5-a10e-4906-bc76-40c9b9f46a4b}, !- Space Name
  Outdoors,                               !- Outside Boundary Condition
  ,                                       !- Outside Boundary Condition Object
  SunExposed,                             !- Sun Exposure
  WindExposed,                            !- Wind Exposure
  ,                                       !- View Factor to Ground
  ,                                       !- Number of Vertices
  6.46578440716979, -12.9315688143396, 2.4384, !- X,Y,Z Vertex 1 {m}
  6.46578440716979, -12.9315688143396, 0, !- X,Y,Z Vertex 2 {m}
  12.9315688143396, -12.9315688143396, 0, !- X,Y,Z Vertex 3 {m}
  12.9315688143396, -12.9315688143396, 2.4384; !- X,Y,Z Vertex 4 {m}

OS:Surface,
  {76d35675-4979-4c66-9bd6-c621b26d421d}, !- Handle
  Surface 13,                             !- Name
  Floor,                                  !- Surface Type
  ,                                       !- Construction Name
  {33a44da5-a10e-4906-bc76-40c9b9f46a4b}, !- Space Name
  Foundation,                             !- Outside Boundary Condition
  ,                                       !- Outside Boundary Condition Object
  NoSun,                                  !- Sun Exposure
  NoWind,                                 !- Wind Exposure
  ,                                       !- View Factor to Ground
  ,                                       !- Number of Vertices
  6.46578440716979, -12.9315688143396, 0, !- X,Y,Z Vertex 1 {m}
  6.46578440716979, 0, 0,                 !- X,Y,Z Vertex 2 {m}
  12.9315688143396, 0, 0,                 !- X,Y,Z Vertex 3 {m}
  12.9315688143396, -12.9315688143396, 0; !- X,Y,Z Vertex 4 {m}

OS:Surface,
  {7e5d542c-f2fb-4f99-a9e8-579cea854264}, !- Handle
  Surface 14,                             !- Name
  Wall,                                   !- Surface Type
  ,                                       !- Construction Name
  {33a44da5-a10e-4906-bc76-40c9b9f46a4b}, !- Space Name
  Outdoors,                               !- Outside Boundary Condition
  ,                                       !- Outside Boundary Condition Object
  SunExposed,                             !- Sun Exposure
  WindExposed,                            !- Wind Exposure
  ,                                       !- View Factor to Ground
  ,                                       !- Number of Vertices
  12.9315688143396, 0, 2.4384,            !- X,Y,Z Vertex 1 {m}
  12.9315688143396, 0, 0,                 !- X,Y,Z Vertex 2 {m}
  6.46578440716979, 0, 0,                 !- X,Y,Z Vertex 3 {m}
  6.46578440716979, 0, 2.4384;            !- X,Y,Z Vertex 4 {m}

OS:Surface,
  {7e06b00d-0420-4870-97c5-bc66883db179}, !- Handle
  Surface 15,                             !- Name
  Wall,                                   !- Surface Type
  ,                                       !- Construction Name
  {33a44da5-a10e-4906-bc76-40c9b9f46a4b}, !- Space Name
  Surface,                                !- Outside Boundary Condition
  {c97b6ea7-e52d-411e-a8ba-3a071b5a1377}, !- Outside Boundary Condition Object
  NoSun,                                  !- Sun Exposure
  NoWind,                                 !- Wind Exposure
  ,                                       !- View Factor to Ground
  ,                                       !- Number of Vertices
  12.9315688143396, -12.9315688143396, 2.4384, !- X,Y,Z Vertex 1 {m}
  12.9315688143396, -12.9315688143396, 0, !- X,Y,Z Vertex 2 {m}
  12.9315688143396, 0, 0,                 !- X,Y,Z Vertex 3 {m}
  12.9315688143396, 0, 2.4384;            !- X,Y,Z Vertex 4 {m}

OS:Surface,
  {9d4d7e97-284b-4439-9732-b3bc44061ce9}, !- Handle
  Surface 16,                             !- Name
  RoofCeiling,                            !- Surface Type
  ,                                       !- Construction Name
  {33a44da5-a10e-4906-bc76-40c9b9f46a4b}, !- Space Name
  Surface,                                !- Outside Boundary Condition
  {6e866365-66ce-4f01-8054-b5b0737707ca}, !- Outside Boundary Condition Object
  NoSun,                                  !- Sun Exposure
  NoWind,                                 !- Wind Exposure
  ,                                       !- View Factor to Ground
  ,                                       !- Number of Vertices
  12.9315688143396, -12.9315688143396, 2.4384, !- X,Y,Z Vertex 1 {m}
  12.9315688143396, 0, 2.4384,            !- X,Y,Z Vertex 2 {m}
  6.46578440716979, 0, 2.4384,            !- X,Y,Z Vertex 3 {m}
  6.46578440716979, -12.9315688143396, 2.4384; !- X,Y,Z Vertex 4 {m}

OS:Surface,
  {849da6d1-6f8b-4fc8-9f36-b584a6337632}, !- Handle
  Surface 17,                             !- Name
  Wall,                                   !- Surface Type
  ,                                       !- Construction Name
  {33a44da5-a10e-4906-bc76-40c9b9f46a4b}, !- Space Name
  Surface,                                !- Outside Boundary Condition
  {55d90e67-5c1f-4e0d-97b6-bdea06d8cb7c}, !- Outside Boundary Condition Object
  NoSun,                                  !- Sun Exposure
  NoWind,                                 !- Wind Exposure
  ,                                       !- View Factor to Ground
  ,                                       !- Number of Vertices
  6.46578440716979, 0, 2.4384,            !- X,Y,Z Vertex 1 {m}
  6.46578440716979, 0, 0,                 !- X,Y,Z Vertex 2 {m}
  6.46578440716979, -12.9315688143396, 0, !- X,Y,Z Vertex 3 {m}
  6.46578440716979, -12.9315688143396, 2.4384; !- X,Y,Z Vertex 4 {m}

OS:ThermalZone,
  {632dbbae-31f9-485e-af52-b7710f973de0}, !- Handle
  living zone|unit 3,                     !- Name
  ,                                       !- Multiplier
  ,                                       !- Ceiling Height {m}
  ,                                       !- Volume {m3}
  ,                                       !- Floor Area {m2}
  ,                                       !- Zone Inside Convection Algorithm
  ,                                       !- Zone Outside Convection Algorithm
  ,                                       !- Zone Conditioning Equipment List Name
  {deca7572-cd4a-465b-bee3-0d714303055f}, !- Zone Air Inlet Port List
  {ebb3f755-27d2-4a09-bcf2-df1d5a30ad49}, !- Zone Air Exhaust Port List
  {80d3e61c-f048-4790-8670-3954873651ce}, !- Zone Air Node Name
  {9b79bd6c-8106-4da5-9d19-581fe3b5e25f}, !- Zone Return Air Node Name
  ,                                       !- Primary Daylighting Control Name