!- NOTE: Auto-generated from /test/osw_files/SFA_4units_1story_SL_UA_3Beds_2Baths_Denver_Furnace_CentralAC.osw

OS:Version,
  {12be1264-09a9-4a35-ae4f-8df442271db6}, !- Handle
  2.5.1;                                  !- Version Identifier

OS:Building,
  {c5b63978-001e-4c06-9e75-e9db3e87b6d8}, !- Handle
  Building 1,                             !- Name
  ,                                       !- Building Sector Type
  0,                                      !- North Axis {deg}
  ,                                       !- Nominal Floor to Floor Height {m}
  ,                                       !- Space Type Name
  ,                                       !- Default Construction Set Name
  ,                                       !- Default Schedule Set Name
  1,                                      !- Standards Number of Stories
  1,                                      !- Standards Number of Above Ground Stories
  singlefamilyattached,                   !- Standards Building Type
  4;                                      !- Standards Number of Living Units

OS:Facility,
  {61e33d50-549d-41e3-8b51-09074487ab79}; !- Handle

OS:Site,
  {941aff5f-afe1-4c14-96f0-0b96cae567f1}, !- Handle
  Denver Intl Ap_CO_USA,                  !- Name
  39.83,                                  !- Latitude {deg}
  -104.65,                                !- Longitude {deg}
  -7,                                     !- Time Zone {hr}
  1650,                                   !- Elevation {m}
  ;                                       !- Terrain

OS:SimulationControl,
  {1507d929-c10c-4155-a1cd-441882e6b415}, !- Handle
  ,                                       !- Do Zone Sizing Calculation
  ,                                       !- Do System Sizing Calculation
  ,                                       !- Do Plant Sizing Calculation
  No;                                     !- Run Simulation for Sizing Periods

OS:Sizing:Parameters,
  {2b3b7df9-94e5-4c74-a98d-5afbde17d86d}, !- Handle
  1.25,                                   !- Heating Sizing Factor
  1.15;                                   !- Cooling Sizing Factor

OS:Timestep,
  {0b4e3755-a6eb-43fa-9221-89bbdd219c71}, !- Handle
  6;                                      !- Number of Timesteps per Hour

OS:ShadowCalculation,
  {f655dc0a-1f52-454a-81d4-34174b8dcad0}, !- Handle
  20,                                     !- Calculation Frequency
  200;                                    !- Maximum Figures in Shadow Overlap Calculations

OS:HeatBalanceAlgorithm,
  {b3fe663d-4f92-4ffb-a5f7-1989fc28e92d}, !- Handle
  ConductionTransferFunction,             !- Algorithm
  200;                                    !- Surface Temperature Upper Limit {C}

OS:RunPeriod,
  {c23cf720-400c-4f61-a684-dd0d7ae07e31}, !- Handle
  Run Period 1,                           !- Name
  1,                                      !- Begin Month
  1,                                      !- Begin Day of Month
  12,                                     !- End Month
  31,                                     !- End Day of Month
  ,                                       !- Use Weather File Holidays and Special Days
  ,                                       !- Use Weather File Daylight Saving Period
  ,                                       !- Apply Weekend Holiday Rule
  ,                                       !- Use Weather File Rain Indicators
  ,                                       !- Use Weather File Snow Indicators
  ;                                       !- Number of Times Runperiod to be Repeated

OS:LifeCycleCost:Parameters,
  {059af799-970c-4522-b96a-1b2739cc250a}, !- Handle
  ,                                       !- Analysis Type
  ,                                       !- Discounting Convention
  ,                                       !- Inflation Approach
  ,                                       !- Real Discount Rate
  ,                                       !- Nominal Discount Rate
  ,                                       !- Inflation
  ,                                       !- Base Date Month
  ,                                       !- Base Date Year
  ,                                       !- Service Date Month
  ,                                       !- Service Date Year
  ;                                       !- Length of Study Period in Years

OS:ThermalZone,
  {b518f991-db5d-4396-9624-448cba9b5951}, !- Handle
  living zone,                            !- Name
  ,                                       !- Multiplier
  ,                                       !- Ceiling Height {m}
  ,                                       !- Volume {m3}
  ,                                       !- Floor Area {m2}
  ,                                       !- Zone Inside Convection Algorithm
  ,                                       !- Zone Outside Convection Algorithm
  ,                                       !- Zone Conditioning Equipment List Name
  {7750e8e0-88c4-4e36-a5d5-503185f6ef03}, !- Zone Air Inlet Port List
  {c52e9847-e89a-4040-8922-7e35873db07c}, !- Zone Air Exhaust Port List
  {429aa416-2cb5-4834-a564-85eedb21b5bd}, !- Zone Air Node Name
  {9226eeea-ea0b-4394-a9b9-bb25b26e40ce}, !- Zone Return Air Node Name
  ,                                       !- Primary Daylighting Control Name
  ,                                       !- Fraction of Zone Controlled by Primary Daylighting Control
  ,                                       !- Secondary Daylighting Control Name
  ,                                       !- Fraction of Zone Controlled by Secondary Daylighting Control
  ,                                       !- Illuminance Map Name
  ,                                       !- Group Rendering Name
  {35f2a16c-f255-4bca-9c48-d6d7c3057874}, !- Thermostat Name
  No;                                     !- Use Ideal Air Loads

OS:Node,
  {1d0712c1-5634-43f3-9612-82ff92e55778}, !- Handle
  Node 1,                                 !- Name
  {429aa416-2cb5-4834-a564-85eedb21b5bd}, !- Inlet Port
  ;                                       !- Outlet Port

OS:Connection,
  {429aa416-2cb5-4834-a564-85eedb21b5bd}, !- Handle
  {bd10303b-eedc-4d01-9f8c-996a51ee4ef6}, !- Name
  {b518f991-db5d-4396-9624-448cba9b5951}, !- Source Object
  11,                                     !- Outlet Port
  {1d0712c1-5634-43f3-9612-82ff92e55778}, !- Target Object
  2;                                      !- Inlet Port

OS:PortList,
  {7750e8e0-88c4-4e36-a5d5-503185f6ef03}, !- Handle
  {3223e0a1-8591-42fa-9cd4-acf1ce250083}, !- Name
  {b518f991-db5d-4396-9624-448cba9b5951}, !- HVAC Component
  {23c486a9-a2e2-41ef-8476-d24d21e576f0}; !- Port 1

OS:PortList,
  {c52e9847-e89a-4040-8922-7e35873db07c}, !- Handle
  {4339ade9-c9be-4e71-ad13-c1d6578eed27}, !- Name
  {b518f991-db5d-4396-9624-448cba9b5951}; !- HVAC Component

OS:Sizing:Zone,
  {c1b2940d-a269-42c4-bf4b-0bdfe0c430b9}, !- Handle
  {b518f991-db5d-4396-9624-448cba9b5951}, !- Zone or ZoneList Name
  SupplyAirTemperature,                   !- Zone Cooling Design Supply Air Temperature Input Method
  14,                                     !- Zone Cooling Design Supply Air Temperature {C}
  11.11,                                  !- Zone Cooling Design Supply Air Temperature Difference {deltaC}
  SupplyAirTemperature,                   !- Zone Heating Design Supply Air Temperature Input Method
  40,                                     !- Zone Heating Design Supply Air Temperature {C}
  11.11,                                  !- Zone Heating Design Supply Air Temperature Difference {deltaC}
  0.0085,                                 !- Zone Cooling Design Supply Air Humidity Ratio {kg-H2O/kg-air}
  0.008,                                  !- Zone Heating Design Supply Air Humidity Ratio {kg-H2O/kg-air}
  ,                                       !- Zone Heating Sizing Factor
  ,                                       !- Zone Cooling Sizing Factor
  DesignDay,                              !- Cooling Design Air Flow Method
  ,                                       !- Cooling Design Air Flow Rate {m3/s}
  ,                                       !- Cooling Minimum Air Flow per Zone Floor Area {m3/s-m2}
  ,                                       !- Cooling Minimum Air Flow {m3/s}
  ,                                       !- Cooling Minimum Air Flow Fraction
  DesignDay,                              !- Heating Design Air Flow Method
  ,                                       !- Heating Design Air Flow Rate {m3/s}
  ,                                       !- Heating Maximum Air Flow per Zone Floor Area {m3/s-m2}
  ,                                       !- Heating Maximum Air Flow {m3/s}
  ,                                       !- Heating Maximum Air Flow Fraction
  ,                                       !- Design Zone Air Distribution Effectiveness in Cooling Mode
  ,                                       !- Design Zone Air Distribution Effectiveness in Heating Mode
  No,                                     !- Account for Dedicated Outdoor Air System
  NeutralSupplyAir,                       !- Dedicated Outdoor Air System Control Strategy
  autosize,                               !- Dedicated Outdoor Air Low Setpoint Temperature for Design {C}
  autosize;                               !- Dedicated Outdoor Air High Setpoint Temperature for Design {C}

OS:ZoneHVAC:EquipmentList,
  {607738b6-def4-40d8-bd15-68fbdddcabd4}, !- Handle
  Zone HVAC Equipment List 1,             !- Name
  {b518f991-db5d-4396-9624-448cba9b5951}, !- Thermal Zone
  {418e47d1-9a76-42ac-bbfe-5277f5047cad}, !- Zone Equipment 1
  1,                                      !- Zone Equipment Cooling Sequence 1
  1;                                      !- Zone Equipment Heating or No-Load Sequence 1

OS:Space,
  {325a8cc8-8693-48fc-b8fe-91f858d63137}, !- Handle
  living space,                           !- Name
  {4a9b6b99-9b04-46a6-a0f7-c4f93f234cd8}, !- Space Type Name
  ,                                       !- Default Construction Set Name
  ,                                       !- Default Schedule Set Name
  ,                                       !- Direction of Relative North {deg}
  ,                                       !- X Origin {m}
  ,                                       !- Y Origin {m}
  ,                                       !- Z Origin {m}
  ,                                       !- Building Story Name
  {b518f991-db5d-4396-9624-448cba9b5951}, !- Thermal Zone Name
  ,                                       !- Part of Total Floor Area
  ,                                       !- Design Specification Outdoor Air Object Name
  {a8b4f324-a976-4ca1-9ad6-e6150717d153}; !- Building Unit Name

OS:Surface,
  {bea44b6a-0da5-4012-87ac-b48f18d029df}, !- Handle
  Surface 1,                              !- Name
  Floor,                                  !- Surface Type
  ,                                       !- Construction Name
  {325a8cc8-8693-48fc-b8fe-91f858d63137}, !- Space Name
  Foundation,                             !- Outside Boundary Condition
  ,                                       !- Outside Boundary Condition Object
  NoSun,                                  !- Sun Exposure
  NoWind,                                 !- Wind Exposure
  ,                                       !- View Factor to Ground
  ,                                       !- Number of Vertices
  0, -12.9315688143396, 0,                !- X,Y,Z Vertex 1 {m}
  0, 0, 0,                                !- X,Y,Z Vertex 2 {m}
  6.46578440716979, 0, 0,                 !- X,Y,Z Vertex 3 {m}
  6.46578440716979, -12.9315688143396, 0; !- X,Y,Z Vertex 4 {m}

OS:Surface,
  {933e58e8-6cb5-4fd4-86d7-119bf1ff9d39}, !- Handle
  Surface 2,                              !- Name
  Wall,                                   !- Surface Type
  ,                                       !- Construction Name
  {325a8cc8-8693-48fc-b8fe-91f858d63137}, !- Space Name
  Outdoors,                               !- Outside Boundary Condition
  ,                                       !- Outside Boundary Condition Object
  SunExposed,                             !- Sun Exposure
  WindExposed,                            !- Wind Exposure
  ,                                       !- View Factor to Ground
  ,                                       !- Number of Vertices
  0, 0, 2.4384,                           !- X,Y,Z Vertex 1 {m}
  0, 0, 0,                                !- X,Y,Z Vertex 2 {m}
  0, -12.9315688143396, 0,                !- X,Y,Z Vertex 3 {m}
  0, -12.9315688143396, 2.4384;           !- X,Y,Z Vertex 4 {m}

OS:Surface,
  {bf56c829-29b2-4994-892c-c595714e99b5}, !- Handle
  Surface 3,                              !- Name
  Wall,                                   !- Surface Type
  ,                                       !- Construction Name
  {325a8cc8-8693-48fc-b8fe-91f858d63137}, !- Space Name
  Outdoors,                               !- Outside Boundary Condition
  ,                                       !- Outside Boundary Condition Object
  SunExposed,                             !- Sun Exposure
  WindExposed,                            !- Wind Exposure
  ,                                       !- View Factor to Ground
  ,                                       !- Number of Vertices
  6.46578440716979, 0, 2.4384,            !- X,Y,Z Vertex 1 {m}
  6.46578440716979, 0, 0,                 !- X,Y,Z Vertex 2 {m}
  0, 0, 0,                                !- X,Y,Z Vertex 3 {m}
  0, 0, 2.4384;                           !- X,Y,Z Vertex 4 {m}

OS:Surface,
  {1de17c79-8d9e-4d00-85be-e67a5a049dde}, !- Handle
  Surface 4,                              !- Name
  Wall,                                   !- Surface Type
  ,                                       !- Construction Name
  {325a8cc8-8693-48fc-b8fe-91f858d63137}, !- Space Name
  Surface,                                !- Outside Boundary Condition
  {a2339e05-a711-49b9-aabb-0cc91e8ae1e3}, !- Outside Boundary Condition Object
  NoSun,                                  !- Sun Exposure
  NoWind,                                 !- Wind Exposure
  ,                                       !- View Factor to Ground
  ,                                       !- Number of Vertices
  6.46578440716979, -12.9315688143396, 2.4384, !- X,Y,Z Vertex 1 {m}
  6.46578440716979, -12.9315688143396, 0, !- X,Y,Z Vertex 2 {m}
  6.46578440716979, 0, 0,                 !- X,Y,Z Vertex 3 {m}
  6.46578440716979, 0, 2.4384;            !- X,Y,Z Vertex 4 {m}

OS:Surface,
  {741d59ff-1cf1-4cec-bf85-6a5b28d3f539}, !- Handle
  Surface 5,                              !- Name
  Wall,                                   !- Surface Type
  ,                                       !- Construction Name
  {325a8cc8-8693-48fc-b8fe-91f858d63137}, !- Space Name
  Outdoors,                               !- Outside Boundary Condition
  ,                                       !- Outside Boundary Condition Object
  SunExposed,                             !- Sun Exposure
  WindExposed,                            !- Wind Exposure
  ,                                       !- View Factor to Ground
  ,                                       !- Number of Vertices
  0, -12.9315688143396, 2.4384,           !- X,Y,Z Vertex 1 {m}
  0, -12.9315688143396, 0,                !- X,Y,Z Vertex 2 {m}
  6.46578440716979, -12.9315688143396, 0, !- X,Y,Z Vertex 3 {m}
  6.46578440716979, -12.9315688143396, 2.4384; !- X,Y,Z Vertex 4 {m}

OS:Surface,
  {d194ce67-c6cc-4c3d-b62c-836ba89e6dec}, !- Handle
  Surface 6,                              !- Name
  RoofCeiling,                            !- Surface Type
  ,                                       !- Construction Name
  {325a8cc8-8693-48fc-b8fe-91f858d63137}, !- Space Name
  Surface,                                !- Outside Boundary Condition
  {e3016780-4aa7-45f4-a731-ab182b6faaec}, !- Outside Boundary Condition Object
  NoSun,                                  !- Sun Exposure
  NoWind,                                 !- Wind Exposure
  ,                                       !- View Factor to Ground
  ,                                       !- Number of Vertices
  6.46578440716979, -12.9315688143396, 2.4384, !- X,Y,Z Vertex 1 {m}
  6.46578440716979, 0, 2.4384,            !- X,Y,Z Vertex 2 {m}
  0, 0, 2.4384,                           !- X,Y,Z Vertex 3 {m}
  0, -12.9315688143396, 2.4384;           !- X,Y,Z Vertex 4 {m}

OS:SpaceType,
  {4a9b6b99-9b04-46a6-a0f7-c4f93f234cd8}, !- Handle
  Space Type 1,                           !- Name
  ,                                       !- Default Construction Set Name
  ,                                       !- Default Schedule Set Name
  ,                                       !- Group Rendering Name
  ,                                       !- Design Specification Outdoor Air Object Name
  ,                                       !- Standards Building Type
  living;                                 !- Standards Space Type

OS:ThermalZone,
  {871168b8-df61-47d9-a9cc-07bfcc711ec8}, !- Handle
  living zone|unit 2,                     !- Name
  ,                                       !- Multiplier
  ,                                       !- Ceiling Height {m}
  ,                                       !- Volume {m3}
  ,                                       !- Floor Area {m2}
  ,                                       !- Zone Inside Convection Algorithm
  ,                                       !- Zone Outside Convection Algorithm
  ,                                       !- Zone Conditioning Equipment List Name
  {4f2c1cd4-29ab-4ad1-aaad-5ea12b78fb75}, !- Zone Air Inlet Port List
  {86b4daf6-d887-4cad-a268-92de414fff04}, !- Zone Air Exhaust Port List
  {cd7d1568-7ffe-423d-8770-864e5ca1ed40}, !- Zone Air Node Name
  {26981556-6cf6-47c9-a866-27bfcd9a4ace}, !- Zone Return Air Node Name
  ,                                       !- Primary Daylighting Control Name
  ,                                       !- Fraction of Zone Controlled by Primary Daylighting Control
  ,                                       !- Secondary Daylighting Control Name
  ,                                       !- Fraction of Zone Controlled by Secondary Daylighting Control
  ,                                       !- Illuminance Map Name
  ,                                       !- Group Rendering Name
  {ee08886a-704a-4d59-90b2-939d9a0f0ef6}, !- Thermostat Name
  No;                                     !- Use Ideal Air Loads

OS:Node,
  {c8477ad1-a78a-4b08-adf6-b2f156285f0d}, !- Handle
  Node 2,                                 !- Name
  {cd7d1568-7ffe-423d-8770-864e5ca1ed40}, !- Inlet Port
  ;                                       !- Outlet Port

OS:Connection,
  {cd7d1568-7ffe-423d-8770-864e5ca1ed40}, !- Handle
  {d5c30816-8b31-46a1-a38f-d8f620b99235}, !- Name
  {871168b8-df61-47d9-a9cc-07bfcc711ec8}, !- Source Object
  11,                                     !- Outlet Port
  {c8477ad1-a78a-4b08-adf6-b2f156285f0d}, !- Target Object
  2;                                      !- Inlet Port

OS:PortList,
  {4f2c1cd4-29ab-4ad1-aaad-5ea12b78fb75}, !- Handle
  {aa8948d5-ef5e-47cc-b9c8-486d21cb6318}, !- Name
  {871168b8-df61-47d9-a9cc-07bfcc711ec8}, !- HVAC Component
  {e37ec264-a29d-4431-9e7f-91f19fc0949d}; !- Port 1

OS:PortList,
  {86b4daf6-d887-4cad-a268-92de414fff04}, !- Handle
  {180bb50f-d0b6-4298-bbcc-efd74e845c07}, !- Name
  {871168b8-df61-47d9-a9cc-07bfcc711ec8}; !- HVAC Component

OS:Sizing:Zone,
  {28db90e2-b5dc-4ab8-a02d-384d713d98cc}, !- Handle
  {871168b8-df61-47d9-a9cc-07bfcc711ec8}, !- Zone or ZoneList Name
  SupplyAirTemperature,                   !- Zone Cooling Design Supply Air Temperature Input Method
  14,                                     !- Zone Cooling Design Supply Air Temperature {C}
  11.11,                                  !- Zone Cooling Design Supply Air Temperature Difference {deltaC}
  SupplyAirTemperature,                   !- Zone Heating Design Supply Air Temperature Input Method
  40,                                     !- Zone Heating Design Supply Air Temperature {C}
  11.11,                                  !- Zone Heating Design Supply Air Temperature Difference {deltaC}
  0.0085,                                 !- Zone Cooling Design Supply Air Humidity Ratio {kg-H2O/kg-air}
  0.008,                                  !- Zone Heating Design Supply Air Humidity Ratio {kg-H2O/kg-air}
  ,                                       !- Zone Heating Sizing Factor
  ,                                       !- Zone Cooling Sizing Factor
  DesignDay,                              !- Cooling Design Air Flow Method
  ,                                       !- Cooling Design Air Flow Rate {m3/s}
  ,                                       !- Cooling Minimum Air Flow per Zone Floor Area {m3/s-m2}
  ,                                       !- Cooling Minimum Air Flow {m3/s}
  ,                                       !- Cooling Minimum Air Flow Fraction
  DesignDay,                              !- Heating Design Air Flow Method
  ,                                       !- Heating Design Air Flow Rate {m3/s}
  ,                                       !- Heating Maximum Air Flow per Zone Floor Area {m3/s-m2}
  ,                                       !- Heating Maximum Air Flow {m3/s}
  ,                                       !- Heating Maximum Air Flow Fraction
  ,                                       !- Design Zone Air Distribution Effectiveness in Cooling Mode
  ,                                       !- Design Zone Air Distribution Effectiveness in Heating Mode
  No,                                     !- Account for Dedicated Outdoor Air System
  NeutralSupplyAir,                       !- Dedicated Outdoor Air System Control Strategy
  autosize,                               !- Dedicated Outdoor Air Low Setpoint Temperature for Design {C}
  autosize;                               !- Dedicated Outdoor Air High Setpoint Temperature for Design {C}

OS:ZoneHVAC:EquipmentList,
  {790aac94-8bb6-49ff-a25c-ec988adf61f0}, !- Handle
  Zone HVAC Equipment List 2,             !- Name
  {871168b8-df61-47d9-a9cc-07bfcc711ec8}, !- Thermal Zone
  {a27c8f04-5fac-4b2b-9109-975b4fc807a9}, !- Zone Equipment 1
  1,                                      !- Zone Equipment Cooling Sequence 1
  1;                                      !- Zone Equipment Heating or No-Load Sequence 1

OS:Space,
  {6ba11569-5e00-4c99-893d-6fb905734ec8}, !- Handle
  living space|unit 2|story 1,            !- Name
  {4a9b6b99-9b04-46a6-a0f7-c4f93f234cd8}, !- Space Type Name
  ,                                       !- Default Construction Set Name
  ,                                       !- Default Schedule Set Name
  -0,                                     !- Direction of Relative North {deg}
  0,                                      !- X Origin {m}
  0,                                      !- Y Origin {m}
  0,                                      !- Z Origin {m}
  ,                                       !- Building Story Name
  {871168b8-df61-47d9-a9cc-07bfcc711ec8}, !- Thermal Zone Name
  ,                                       !- Part of Total Floor Area
  ,                                       !- Design Specification Outdoor Air Object Name
  {766880e6-aca0-4062-afbc-66d4424c2165}; !- Building Unit Name

OS:Surface,
  {78eb5b41-0e49-4c95-8f6e-ed82b1597e98}, !- Handle
  Surface 12,                             !- Name
  RoofCeiling,                            !- Surface Type
  ,                                       !- Construction Name
  {6ba11569-5e00-4c99-893d-6fb905734ec8}, !- Space Name
  Surface,                                !- Outside Boundary Condition
  {8b07d4ec-1652-4e05-91b0-306263d98dd5}, !- Outside Boundary Condition Object
  NoSun,                                  !- Sun Exposure
  NoWind,                                 !- Wind Exposure
  ,                                       !- View Factor to Ground
  ,                                       !- Number of Vertices
  12.9315688143396, -12.9315688143396, 2.4384, !- X,Y,Z Vertex 1 {m}
  12.9315688143396, 0, 2.4384,            !- X,Y,Z Vertex 2 {m}
  6.46578440716979, 0, 2.4384,            !- X,Y,Z Vertex 3 {m}
  6.46578440716979, -12.9315688143396, 2.4384; !- X,Y,Z Vertex 4 {m}

OS:Surface,
  {840dd6d6-760f-44ae-8956-413e10464514}, !- Handle
  Surface 13,                             !- Name
  Wall,                                   !- Surface Type
  ,                                       !- Construction Name
  {6ba11569-5e00-4c99-893d-6fb905734ec8}, !- Space Name
  Surface,                                !- Outside Boundary Condition
  {8c3256b6-dd02-4b4b-838e-3ee67950c959}, !- Outside Boundary Condition Object
  NoSun,                                  !- Sun Exposure
  NoWind,                                 !- Wind Exposure
  ,                                       !- View Factor to Ground
  ,                                       !- Number of Vertices
  12.9315688143396, -12.9315688143396, 2.4384, !- X,Y,Z Vertex 1 {m}
  12.9315688143396, -12.9315688143396, 0, !- X,Y,Z Vertex 2 {m}
  12.9315688143396, 0, 0,                 !- X,Y,Z Vertex 3 {m}
  12.9315688143396, 0, 2.4384;            !- X,Y,Z Vertex 4 {m}

OS:Surface,
  {a2339e05-a711-49b9-aabb-0cc91e8ae1e3}, !- Handle
  Surface 14,                             !- Name
  Wall,                                   !- Surface Type
  ,                                       !- Construction Name
  {6ba11569-5e00-4c99-893d-6fb905734ec8}, !- Space Name
  Surface,                                !- Outside Boundary Condition
  {1de17c79-8d9e-4d00-85be-e67a5a049dde}, !- Outside Boundary Condition Object
  NoSun,                                  !- Sun Exposure
  NoWind,                                 !- Wind Exposure
  ,                                       !- View Factor to Ground
  ,                                       !- Number of Vertices
  6.46578440716979, 0, 2.4384,            !- X,Y,Z Vertex 1 {m}
  6.46578440716979, 0, 0,                 !- X,Y,Z Vertex 2 {m}
  6.46578440716979, -12.9315688143396, 0, !- X,Y,Z Vertex 3 {m}
  6.46578440716979, -12.9315688143396, 2.4384; !- X,Y,Z Vertex 4 {m}

OS:Surface,
  {10b9cf1f-c075-4044-81df-f82be0ab0496}, !- Handle
  Surface 15,                             !- Name
  Floor,                                  !- Surface Type
  ,                                       !- Construction Name
  {6ba11569-5e00-4c99-893d-6fb905734ec8}, !- Space Name
  Foundation,                             !- Outside Boundary Condition
  ,                                       !- Outside Boundary Condition Object
  NoSun,                                  !- Sun Exposure
  NoWind,                                 !- Wind Exposure
  ,                                       !- View Factor to Ground
  ,                                       !- Number of Vertices
  6.46578440716979, -12.9315688143396, 0, !- X,Y,Z Vertex 1 {m}
  6.46578440716979, 0, 0,                 !- X,Y,Z Vertex 2 {m}
  12.9315688143396, 0, 0,                 !- X,Y,Z Vertex 3 {m}
  12.9315688143396, -12.9315688143396, 0; !- X,Y,Z Vertex 4 {m}

OS:Surface,
  {182b55ec-63a7-4032-974c-03ee1a12d3a7}, !- Handle
  Surface 16,                             !- Name
  Wall,                                   !- Surface Type
  ,                                       !- Construction Name
  {6ba11569-5e00-4c99-893d-6fb905734ec8}, !- Space Name
  Outdoors,                               !- Outside Boundary Condition
  ,                                       !- Outside Boundary Condition Object
  SunExposed,                             !- Sun Exposure
  WindExposed,                            !- Wind Exposure
  ,                                       !- View Factor to Ground
  ,                                       !- Number of Vertices
  6.46578440716979, -12.9315688143396, 2.4384, !- X,Y,Z Vertex 1 {m}
  6.46578440716979, -12.9315688143396, 0, !- X,Y,Z Vertex 2 {m}
  12.9315688143396, -12.9315688143396, 0, !- X,Y,Z Vertex 3 {m}
  12.9315688143396, -12.9315688143396, 2.4384; !- X,Y,Z Vertex 4 {m}

OS:Surface,
  {e60966fe-ac71-40b7-8bd2-f98026c84c8d}, !- Handle
  Surface 17,                             !- Name
  Wall,                                   !- Surface Type
  ,                                       !- Construction Name
  {6ba11569-5e00-4c99-893d-6fb905734ec8}, !- Space Name
  Outdoors,                               !- Outside Boundary Condition
  ,                                       !- Outside Boundary Condition Object
  SunExposed,                             !- Sun Exposure
  WindExposed,                            !- Wind Exposure
  ,                                       !- View Factor to Ground
  ,                                       !- Number of Vertices
  12.9315688143396, 0, 2.4384,            !- X,Y,Z Vertex 1 {m}
  12.9315688143396, 0, 0,                 !- X,Y,Z Vertex 2 {m}
  6.46578440716979, 0, 0,                 !- X,Y,Z Vertex 3 {m}
  6.46578440716979, 0, 2.4384;            !- X,Y,Z Vertex 4 {m}

OS:ThermalZone,
  {c57995a6-7216-4d20-b9fa-e948b861cd6b}, !- Handle
  living zone|unit 3,                     !- Name
  ,                                       !- Multiplier
  ,                                       !- Ceiling Height {m}
  ,                                       !- Volume {m3}
  ,                                       !- Floor Area {m2}
  ,                                       !- Zone Inside Convection Algorithm
  ,                                       !- Zone Outside Convection Algorithm
  ,                                       !- Zone Conditioning Equipment List Name
  {9ec24234-c731-40b1-8d65-490908b62829}, !- Zone Air Inlet Port List
  {e57fa092-94a6-4217-861d-5ddf01a6976c}, !- Zone Air Exhaust Port List
  {17a0dbef-17e0-4083-b74c-09571af740ca}, !- Zone Air Node Name
  {0c95d83f-1c25-41b1-8560-26610b317596}, !- Zone Return Air Node Name
  ,                                       !- Primary Daylighting Control Name