!- NOTE: Auto-generated from /test/osw_files/SFA_10units_2story_FB_UA_3Beds_2Baths_Denver_No_Zone_Mult.osw

OS:Version,
  {24444313-0310-4d1f-a388-629c1aec5a6c}, !- Handle
  2.5.0;                                  !- Version Identifier

OS:Building,
  {bf305633-c5a1-4881-9edf-ca5e1a8e1274}, !- Handle
  Building,                               !- Name
  ,                                       !- Building Sector Type
  ,                                       !- North Axis {deg}
  ,                                       !- Nominal Floor to Floor Height {m}
  ,                                       !- Space Type Name
  ,                                       !- Default Construction Set Name
  ,                                       !- Default Schedule Set Name
  3,                                      !- Standards Number of Stories
  2,                                      !- Standards Number of Above Ground Stories
  singlefamilyttached,                    !- Standards Building Type
  10;                                     !- Standards Number of Living Units

OS:YearDescription,
  {513d8dda-86cb-442a-b01c-1f7f0e0ac70e}; !- Handle

OS:SimulationControl,
  {2c487a4c-bac9-4ac5-b669-1e49d9da7c2b}, !- Handle
  ,                                       !- Do Zone Sizing Calculation
  ,                                       !- Do System Sizing Calculation
  ,                                       !- Do Plant Sizing Calculation
  No,                                     !- Run Simulation for Sizing Periods
  ;                                       !- Run Simulation for Weather File Run Periods

OS:Timestep,
  {4ebc9f1e-4707-402e-9844-67eb1ffbd522}, !- Handle
  6;                                      !- Number of Timesteps per Hour

OS:RunPeriod,
  {28df894d-6af9-4fb8-8f56-df1753344aa3}, !- Handle
  Run Period,                             !- Name
  1,                                      !- Begin Month
  1,                                      !- Begin Day of Month
  12,                                     !- End Month
  31,                                     !- End Day of Month
  ,                                       !- Use Weather File Holidays and Special Days
  ,                                       !- Use Weather File Daylight Saving Period
  ,                                       !- Apply Weekend Holiday Rule
  ,                                       !- Use Weather File Rain Indicators
  ,                                       !- Use Weather File Snow Indicators
  ;                                       !- Number of Times Runperiod to be Repeated

OS:Sizing:Parameters,
  {dde5af6f-7923-4600-a28a-7556673a0266}, !- Handle
  1.0,                                    !- Heating Sizing Factor
  1.0;                                    !- Cooling Sizing Factor

OS:ShadowCalculation,
  {ca758bea-4416-4626-9bba-3d8795c79bd6}, !- Handle
  20,                                     !- Calculation Frequency
  200;                                    !- Maximum Figures in Shadow Overlap Calculations

OS:SurfaceConvectionAlgorithm:Inside,
  {aaabfc36-718a-4ab0-b622-f186ebb45230}, !- Handle
  TARP;                                   !- Algorithm

OS:SurfaceConvectionAlgorithm:Outside,
  {9a0a9f6f-4bbd-4b12-a121-9492a1fcd7d6}, !- Handle
  DOE-2;                                  !- Algorithm

OS:HeatBalanceAlgorithm,
  {9d93e563-e1e0-46d7-9e39-d1c8aceb7212}, !- Handle
  ConductionTransferFunction,             !- Algorithm
  200;                                    !- Surface Temperature Upper Limit {C}

OS:ZoneCapacitanceMultiplier:ResearchSpecial,
  {6bfced16-b16f-47f6-8223-f7e267d75d19}, !- Handle
  ,                                       !- Temperature Capacity Multiplier
  15,                                     !- Humidity Capacity Multiplier
  ;                                       !- Carbon Dioxide Capacity Multiplier

OS:ThermalZone,
  {735c686c-6de4-4dae-960e-4b968690d5ff}, !- Handle
  living zone,                            !- Name
  ,                                       !- Multiplier
  ,                                       !- Ceiling Height {m}
  ,                                       !- Volume {m3}
  ,                                       !- Floor Area {m2}
  ,                                       !- Zone Inside Convection Algorithm
  ,                                       !- Zone Outside Convection Algorithm
  ,                                       !- Zone Conditioning Equipment List Name
  {6a62ddaf-43bd-4734-a8e9-6112b704812a}, !- Zone Air Inlet Port List
  {b2fe0fa4-041f-41db-a5bd-dbf969b838ca}, !- Zone Air Exhaust Port List
  {fe7843ef-8d64-4513-a071-13d4dbdf440b}, !- Zone Air Node Name
  ,                                       !- Zone Return Air Node Name
  ,                                       !- Primary Daylighting Control Name
  ,                                       !- Fraction of Zone Controlled by Primary Daylighting Control
  ,                                       !- Secondary Daylighting Control Name
  ,                                       !- Fraction of Zone Controlled by Secondary Daylighting Control
  ,                                       !- Illuminance Map Name
  ,                                       !- Group Rendering Name
  ,                                       !- Thermostat Name
  No;                                     !- Use Ideal Air Loads

OS:Node,
  {b4ae5ee8-99c9-46fd-979f-7110c700e97a}, !- Handle
  Node 1,                                 !- Name
  {fe7843ef-8d64-4513-a071-13d4dbdf440b}, !- Inlet Port
  ;                                       !- Outlet Port

OS:Connection,
  {fe7843ef-8d64-4513-a071-13d4dbdf440b}, !- Handle
  {271c8ee5-69e8-497e-b9a7-7d1b17cb4459}, !- Name
  {735c686c-6de4-4dae-960e-4b968690d5ff}, !- Source Object
  11,                                     !- Outlet Port
  {b4ae5ee8-99c9-46fd-979f-7110c700e97a}, !- Target Object
  2;                                      !- Inlet Port

OS:PortList,
  {6a62ddaf-43bd-4734-a8e9-6112b704812a}, !- Handle
  {3cbf607d-4bbd-4c2b-9884-3d52402951ed}, !- Name
  {735c686c-6de4-4dae-960e-4b968690d5ff}; !- HVAC Component

OS:PortList,
  {b2fe0fa4-041f-41db-a5bd-dbf969b838ca}, !- Handle
  {bd67d686-4064-4a3d-b684-9516ec8f1e4f}, !- Name
  {735c686c-6de4-4dae-960e-4b968690d5ff}; !- HVAC Component

OS:Sizing:Zone,
  {d04dbac5-60ce-41d1-b8e5-a9e8c25fa71b}, !- Handle
  {735c686c-6de4-4dae-960e-4b968690d5ff}, !- Zone or ZoneList Name
  SupplyAirTemperature,                   !- Zone Cooling Design Supply Air Temperature Input Method
  14,                                     !- Zone Cooling Design Supply Air Temperature {C}
  11.11,                                  !- Zone Cooling Design Supply Air Temperature Difference {deltaC}
  SupplyAirTemperature,                   !- Zone Heating Design Supply Air Temperature Input Method
  40,                                     !- Zone Heating Design Supply Air Temperature {C}
  11.11,                                  !- Zone Heating Design Supply Air Temperature Difference {deltaC}
  0.0085,                                 !- Zone Cooling Design Supply Air Humidity Ratio {kg-H2O/kg-air}
  0.008,                                  !- Zone Heating Design Supply Air Humidity Ratio {kg-H2O/kg-air}
  ,                                       !- Zone Heating Sizing Factor
  ,                                       !- Zone Cooling Sizing Factor
  DesignDay,                              !- Cooling Design Air Flow Method
  ,                                       !- Cooling Design Air Flow Rate {m3/s}
  ,                                       !- Cooling Minimum Air Flow per Zone Floor Area {m3/s-m2}
  ,                                       !- Cooling Minimum Air Flow {m3/s}
  ,                                       !- Cooling Minimum Air Flow Fraction
  DesignDay,                              !- Heating Design Air Flow Method
  ,                                       !- Heating Design Air Flow Rate {m3/s}
  ,                                       !- Heating Maximum Air Flow per Zone Floor Area {m3/s-m2}
  ,                                       !- Heating Maximum Air Flow {m3/s}
  ,                                       !- Heating Maximum Air Flow Fraction
  ,                                       !- Design Zone Air Distribution Effectiveness in Cooling Mode
  ,                                       !- Design Zone Air Distribution Effectiveness in Heating Mode
  No,                                     !- Account for Dedicated Outdoor Air System
  NeutralSupplyAir,                       !- Dedicated Outdoor Air System Control Strategy
  autosize,                               !- Dedicated Outdoor Air Low Setpoint Temperature for Design {C}
  autosize;                               !- Dedicated Outdoor Air High Setpoint Temperature for Design {C}

OS:ZoneHVAC:EquipmentList,
  {b6e1d9bf-8a2e-4edd-a63d-cefab809f491}, !- Handle
  Zone HVAC Equipment List 1,             !- Name
  {735c686c-6de4-4dae-960e-4b968690d5ff}; !- Thermal Zone

OS:Space,
  {a91e58b8-16dd-499e-b979-efc5906aaa8c}, !- Handle
  living space,                           !- Name
  {a3a552d9-a131-4238-8ede-366a412bfcdd}, !- Space Type Name
  ,                                       !- Default Construction Set Name
  ,                                       !- Default Schedule Set Name
  ,                                       !- Direction of Relative North {deg}
  ,                                       !- X Origin {m}
  ,                                       !- Y Origin {m}
  ,                                       !- Z Origin {m}
  ,                                       !- Building Story Name
  {735c686c-6de4-4dae-960e-4b968690d5ff}, !- Thermal Zone Name
  ,                                       !- Part of Total Floor Area
  ,                                       !- Design Specification Outdoor Air Object Name
  {596a86b6-d98b-4d3c-afb6-0bff9c05b256}; !- Building Unit Name

OS:Surface,
  {3d4752c7-3c2b-4487-b7c1-fec6df15aab7}, !- Handle
  Surface 1,                              !- Name
  Floor,                                  !- Surface Type
  ,                                       !- Construction Name
  {a91e58b8-16dd-499e-b979-efc5906aaa8c}, !- Space Name
  Surface,                                !- Outside Boundary Condition
  {398859be-53eb-4faf-8712-4b0e93b03b87}, !- Outside Boundary Condition Object
  NoSun,                                  !- Sun Exposure
  NoWind,                                 !- Wind Exposure
  ,                                       !- View Factor to Ground
  ,                                       !- Number of Vertices
  0, -7.46604473600313, 0,                !- X,Y,Z Vertex 1 {m}
  0, 0, 0,                                !- X,Y,Z Vertex 2 {m}
  3.73302236800156, 0, 0,                 !- X,Y,Z Vertex 3 {m}
  3.73302236800156, -7.46604473600313, 0; !- X,Y,Z Vertex 4 {m}

OS:Surface,
  {bc78caa6-78e8-4755-8fa1-649c683f432c}, !- Handle
  Surface 2,                              !- Name
  Wall,                                   !- Surface Type
  ,                                       !- Construction Name
  {a91e58b8-16dd-499e-b979-efc5906aaa8c}, !- Space Name
  Outdoors,                               !- Outside Boundary Condition
  ,                                       !- Outside Boundary Condition Object
  SunExposed,                             !- Sun Exposure
  WindExposed,                            !- Wind Exposure
  ,                                       !- View Factor to Ground
  ,                                       !- Number of Vertices
  0, 0, 2.4384,                           !- X,Y,Z Vertex 1 {m}
  0, 0, 0,                                !- X,Y,Z Vertex 2 {m}
  0, -7.46604473600313, 0,                !- X,Y,Z Vertex 3 {m}
  0, -7.46604473600313, 2.4384;           !- X,Y,Z Vertex 4 {m}

OS:Surface,
  {894b67ed-4732-44be-8bee-332ac8c16e96}, !- Handle
  Surface 3,                              !- Name
  Wall,                                   !- Surface Type
  ,                                       !- Construction Name
  {a91e58b8-16dd-499e-b979-efc5906aaa8c}, !- Space Name
  Outdoors,                               !- Outside Boundary Condition
  ,                                       !- Outside Boundary Condition Object
  SunExposed,                             !- Sun Exposure
  WindExposed,                            !- Wind Exposure
  ,                                       !- View Factor to Ground
  ,                                       !- Number of Vertices
  3.73302236800156, 0, 2.4384,            !- X,Y,Z Vertex 1 {m}
  3.73302236800156, 0, 0,                 !- X,Y,Z Vertex 2 {m}
  0, 0, 0,                                !- X,Y,Z Vertex 3 {m}
  0, 0, 2.4384;                           !- X,Y,Z Vertex 4 {m}

OS:Surface,
  {a97c5cdd-b641-430d-84b4-82e6dc20e673}, !- Handle
  Surface 4,                              !- Name
  Wall,                                   !- Surface Type
  ,                                       !- Construction Name
  {a91e58b8-16dd-499e-b979-efc5906aaa8c}, !- Space Name
  Surface,                                !- Outside Boundary Condition
  {032161ac-7e09-4ddf-8de0-ca094bddf1ac}, !- Outside Boundary Condition Object
  NoSun,                                  !- Sun Exposure
  NoWind,                                 !- Wind Exposure
  ,                                       !- View Factor to Ground
  ,                                       !- Number of Vertices
  3.73302236800156, -7.46604473600313, 2.4384, !- X,Y,Z Vertex 1 {m}
  3.73302236800156, -7.46604473600313, 0, !- X,Y,Z Vertex 2 {m}
  3.73302236800156, 0, 0,                 !- X,Y,Z Vertex 3 {m}
  3.73302236800156, 0, 2.4384;            !- X,Y,Z Vertex 4 {m}

OS:Surface,
  {09c7447c-6bcd-4b31-9f9c-9ca995106c9b}, !- Handle
  Surface 5,                              !- Name
  Wall,                                   !- Surface Type
  ,                                       !- Construction Name
  {a91e58b8-16dd-499e-b979-efc5906aaa8c}, !- Space Name
  Outdoors,                               !- Outside Boundary Condition
  ,                                       !- Outside Boundary Condition Object
  SunExposed,                             !- Sun Exposure
  WindExposed,                            !- Wind Exposure
  ,                                       !- View Factor to Ground
  ,                                       !- Number of Vertices
  0, -7.46604473600313, 2.4384,           !- X,Y,Z Vertex 1 {m}
  0, -7.46604473600313, 0,                !- X,Y,Z Vertex 2 {m}
  3.73302236800156, -7.46604473600313, 0, !- X,Y,Z Vertex 3 {m}
  3.73302236800156, -7.46604473600313, 2.4384; !- X,Y,Z Vertex 4 {m}

OS:Surface,
  {39db8b71-3a8f-4e0f-a69a-0950acdd2ecc}, !- Handle
  Surface 6,                              !- Name
  RoofCeiling,                            !- Surface Type
  ,                                       !- Construction Name
  {a91e58b8-16dd-499e-b979-efc5906aaa8c}, !- Space Name
  Surface,                                !- Outside Boundary Condition
  {5eed854a-2621-4400-b8e8-9c45d788dfbc}, !- Outside Boundary Condition Object
  NoSun,                                  !- Sun Exposure
  NoWind,                                 !- Wind Exposure
  ,                                       !- View Factor to Ground
  ,                                       !- Number of Vertices
  3.73302236800156, -7.46604473600313, 2.4384, !- X,Y,Z Vertex 1 {m}
  3.73302236800156, 0, 2.4384,            !- X,Y,Z Vertex 2 {m}
  0, 0, 2.4384,                           !- X,Y,Z Vertex 3 {m}
  0, -7.46604473600313, 2.4384;           !- X,Y,Z Vertex 4 {m}

OS:SpaceType,
  {a3a552d9-a131-4238-8ede-366a412bfcdd}, !- Handle
  Space Type 1,                           !- Name
  ,                                       !- Default Construction Set Name
  ,                                       !- Default Schedule Set Name
  ,                                       !- Group Rendering Name
  ,                                       !- Design Specification Outdoor Air Object Name
  ,                                       !- Standards Building Type
  living;                                 !- Standards Space Type

OS:Space,
  {8f052275-a9d9-4869-8683-4a188b381c50}, !- Handle
  living space|story 2,                   !- Name
  {a3a552d9-a131-4238-8ede-366a412bfcdd}, !- Space Type Name
  ,                                       !- Default Construction Set Name
  ,                                       !- Default Schedule Set Name
  -0,                                     !- Direction of Relative North {deg}
  0,                                      !- X Origin {m}
  0,                                      !- Y Origin {m}
  2.4384,                                 !- Z Origin {m}
  ,                                       !- Building Story Name
  {735c686c-6de4-4dae-960e-4b968690d5ff}, !- Thermal Zone Name
  ,                                       !- Part of Total Floor Area
  ,                                       !- Design Specification Outdoor Air Object Name
  {596a86b6-d98b-4d3c-afb6-0bff9c05b256}; !- Building Unit Name

OS:Surface,
  {d27529ae-2f61-4e68-9201-9fae41b71580}, !- Handle
  Surface 7,                              !- Name
  Wall,                                   !- Surface Type
  ,                                       !- Construction Name
  {8f052275-a9d9-4869-8683-4a188b381c50}, !- Space Name
  Outdoors,                               !- Outside Boundary Condition
  ,                                       !- Outside Boundary Condition Object
  SunExposed,                             !- Sun Exposure
  WindExposed,                            !- Wind Exposure
  ,                                       !- View Factor to Ground
  ,                                       !- Number of Vertices
  0, -7.46604473600313, 2.4384,           !- X,Y,Z Vertex 1 {m}
  0, -7.46604473600313, 0,                !- X,Y,Z Vertex 2 {m}
  3.73302236800156, -7.46604473600313, 0, !- X,Y,Z Vertex 3 {m}
  3.73302236800156, -7.46604473600313, 2.4384; !- X,Y,Z Vertex 4 {m}

OS:Surface,
  {5eed854a-2621-4400-b8e8-9c45d788dfbc}, !- Handle
  Surface 8,                              !- Name
  Floor,                                  !- Surface Type
  ,                                       !- Construction Name
  {8f052275-a9d9-4869-8683-4a188b381c50}, !- Space Name
  Surface,                                !- Outside Boundary Condition
  {39db8b71-3a8f-4e0f-a69a-0950acdd2ecc}, !- Outside Boundary Condition Object
  NoSun,                                  !- Sun Exposure
  NoWind,                                 !- Wind Exposure
  ,                                       !- View Factor to Ground
  ,                                       !- Number of Vertices
  0, -7.46604473600313, 0,                !- X,Y,Z Vertex 1 {m}
  0, 0, 0,                                !- X,Y,Z Vertex 2 {m}
  3.73302236800156, 0, 0,                 !- X,Y,Z Vertex 3 {m}
  3.73302236800156, -7.46604473600313, 0; !- X,Y,Z Vertex 4 {m}

OS:Surface,
  {15f98fbf-5d31-4a07-bfe9-5abdad3d424c}, !- Handle
  Surface 9,                              !- Name
  Wall,                                   !- Surface Type
  ,                                       !- Construction Name
  {8f052275-a9d9-4869-8683-4a188b381c50}, !- Space Name
  Outdoors,                               !- Outside Boundary Condition
  ,                                       !- Outside Boundary Condition Object
  SunExposed,                             !- Sun Exposure
  WindExposed,                            !- Wind Exposure
  ,                                       !- View Factor to Ground
  ,                                       !- Number of Vertices
  0, 0, 2.4384,                           !- X,Y,Z Vertex 1 {m}
  0, 0, 0,                                !- X,Y,Z Vertex 2 {m}
  0, -7.46604473600313, 0,                !- X,Y,Z Vertex 3 {m}
  0, -7.46604473600313, 2.4384;           !- X,Y,Z Vertex 4 {m}

OS:Surface,
  {b78c4906-b097-4b38-8020-bc9bbcd5c8a1}, !- Handle
  Surface 10,                             !- Name
  Wall,                                   !- Surface Type
  ,                                       !- Construction Name
  {8f052275-a9d9-4869-8683-4a188b381c50}, !- Space Name
  Outdoors,                               !- Outside Boundary Condition
  ,                                       !- Outside Boundary Condition Object
  SunExposed,                             !- Sun Exposure
  WindExposed,                            !- Wind Exposure
  ,                                       !- View Factor to Ground
  ,                                       !- Number of Vertices
  3.73302236800156, 0, 2.4384,            !- X,Y,Z Vertex 1 {m}
  3.73302236800156, 0, 0,                 !- X,Y,Z Vertex 2 {m}
  0, 0, 0,                                !- X,Y,Z Vertex 3 {m}
  0, 0, 2.4384;                           !- X,Y,Z Vertex 4 {m}

OS:Surface,
  {b6070b7b-4289-4d30-ac4c-a8c5f350e2b2}, !- Handle
  Surface 11,                             !- Name
  Wall,                                   !- Surface Type
  ,                                       !- Construction Name
  {8f052275-a9d9-4869-8683-4a188b381c50}, !- Space Name
  Surface,                                !- Outside Boundary Condition
  {2b838c9b-8069-490b-804a-cbffee0d6a9e}, !- Outside Boundary Condition Object
  NoSun,                                  !- Sun Exposure
  NoWind,                                 !- Wind Exposure
  ,                                       !- View Factor to Ground
  ,                                       !- Number of Vertices
  3.73302236800156, -7.46604473600313, 2.4384, !- X,Y,Z Vertex 1 {m}
  3.73302236800156, -7.46604473600313, 0, !- X,Y,Z Vertex 2 {m}
  3.73302236800156, 0, 0,                 !- X,Y,Z Vertex 3 {m}
  3.73302236800156, 0, 2.4384;            !- X,Y,Z Vertex 4 {m}

OS:Surface,
  {974f59ca-d27d-4b05-b178-990b57e87acd}, !- Handle
  Surface 12,                             !- Name
  RoofCeiling,                            !- Surface Type
  ,                                       !- Construction Name
  {8f052275-a9d9-4869-8683-4a188b381c50}, !- Space Name
  Surface,                                !- Outside Boundary Condition
  {89b139af-f33a-46a9-aecc-599e486f53e2}, !- Outside Boundary Condition Object
  NoSun,                                  !- Sun Exposure
  NoWind,                                 !- Wind Exposure
  ,                                       !- View Factor to Ground
  ,                                       !- Number of Vertices
  3.73302236800156, -7.46604473600313, 2.4384, !- X,Y,Z Vertex 1 {m}
  3.73302236800156, 0, 2.4384,            !- X,Y,Z Vertex 2 {m}
  0, 0, 2.4384,                           !- X,Y,Z Vertex 3 {m}
  0, -7.46604473600313, 2.4384;           !- X,Y,Z Vertex 4 {m}

OS:ThermalZone,
  {1b508d87-3f3e-464a-85cd-c674081a3061}, !- Handle
  living zone|unit 2,                     !- Name
  ,                                       !- Multiplier
  ,                                       !- Ceiling Height {m}
  ,                                       !- Volume {m3}
  ,                                       !- Floor Area {m2}
  ,                                       !- Zone Inside Convection Algorithm
  ,                                       !- Zone Outside Convection Algorithm
  ,                                       !- Zone Conditioning Equipment List Name
  {c56645bc-6218-46c5-ba25-7059b0d825e3}, !- Zone Air Inlet Port List
  {b5c9f3da-55a1-4b71-8287-ea25ab4c108c}, !- Zone Air Exhaust Port List
  {d15e6bc4-2673-471a-8e9b-0ca84cfa333a}, !- Zone Air Node Name
  ,                                       !- Zone Return Air Node Name
  ,                                       !- Primary Daylighting Control Name
  ,                                       !- Fraction of Zone Controlled by Primary Daylighting Control
  ,                                       !- Secondary Daylighting Control Name
  ,                                       !- Fraction of Zone Controlled by Secondary Daylighting Control
  ,                                       !- Illuminance Map Name
  ,                                       !- Group Rendering Name
  ,                                       !- Thermostat Name
  No;                                     !- Use Ideal Air Loads

OS:Node,
  {0f48b731-a602-4c9e-86ee-ba7ecb127be7}, !- Handle
  Node 2,                                 !- Name
  {d15e6bc4-2673-471a-8e9b-0ca84cfa333a}, !- Inlet Port
  ;                                       !- Outlet Port

OS:Connection,
  {d15e6bc4-2673-471a-8e9b-0ca84cfa333a}, !- Handle
  {5ec642ef-3d17-44ec-8a1f-5c873796fda5}, !- Name
  {1b508d87-3f3e-464a-85cd-c674081a3061}, !- Source Object
  11,                                     !- Outlet Port
  {0f48b731-a602-4c9e-86ee-ba7ecb127be7}, !- Target Object
  2;                                      !- Inlet Port

OS:PortList,
  {c56645bc-6218-46c5-ba25-7059b0d825e3}, !- Handle
  {42f39891-9660-48f9-9ab7-995e67f49a34}, !- Name
  {1b508d87-3f3e-464a-85cd-c674081a3061}; !- HVAC Component

OS:PortList,
  {b5c9f3da-55a1-4b71-8287-ea25ab4c108c}, !- Handle
  {f38b3bb9-cf2b-4b97-a406-80f4dd858765}, !- Name
  {1b508d87-3f3e-464a-85cd-c674081a3061}; !- HVAC Component

OS:Sizing:Zone,
  {557dc0d2-a035-406b-a488-1ade1fe6aa5a}, !- Handle
  {1b508d87-3f3e-464a-85cd-c674081a3061}, !- Zone or ZoneList Name
  SupplyAirTemperature,                   !- Zone Cooling Design Supply Air Temperature Input Method
  14,                                     !- Zone Cooling Design Supply Air Temperature {C}
  11.11,                                  !- Zone Cooling Design Supply Air Temperature Difference {deltaC}
  SupplyAirTemperature,                   !- Zone Heating Design Supply Air Temperature Input Method
  40,                                     !- Zone Heating Design Supply Air Temperature {C}
  11.11,                                  !- Zone Heating Design Supply Air Temperature Difference {deltaC}
  0.0085,                                 !- Zone Cooling Design Supply Air Humidity Ratio {kg-H2O/kg-air}
  0.008,                                  !- Zone Heating Design Supply Air Humidity Ratio {kg-H2O/kg-air}
  ,                                       !- Zone Heating Sizing Factor
  ,                                       !- Zone Cooling Sizing Factor
  DesignDay,                              !- Cooling Design Air Flow Method
  ,                                       !- Cooling Design Air Flow Rate {m3/s}
  ,                                       !- Cooling Minimum Air Flow per Zone Floor Area {m3/s-m2}
  ,                                       !- Cooling Minimum Air Flow {m3/s}
  ,                                       !- Cooling Minimum Air Flow Fraction
  DesignDay,                              !- Heating Design Air Flow Method
  ,                                       !- Heating Design Air Flow Rate {m3/s}
  ,                                       !- Heating Maximum Air Flow per Zone Floor Area {m3/s-m2}
  ,                                       !- Heating Maximum Air Flow {m3/s}
  ,                                       !- Heating Maximum Air Flow Fraction
  ,                                       !- Design Zone Air Distribution Effectiveness in Cooling Mode
  ,                                       !- Design Zone Air Distribution Effectiveness in Heating Mode
  No,                                     !- Account for Dedicated Outdoor Air System
  NeutralSupplyAir,                       !- Dedicated Outdoor Air System Control Strategy
  autosize,                               !- Dedicated Outdoor Air Low Setpoint Temperature for Design {C}
  autosize;                               !- Dedicated Outdoor Air High Setpoint Temperature for Design {C}

OS:ZoneHVAC:EquipmentList,
  {6449edd5-053f-4501-b228-50e7e0eba258}, !- Handle
  Zone HVAC Equipment List 2,             !- Name
  {1b508d87-3f3e-464a-85cd-c674081a3061}; !- Thermal Zone

OS:Space,
  {cd4f35fd-3bfa-41cb-80e0-a58c994bf442}, !- Handle
  living space|unit 2|story 1,            !- Name
  {a3a552d9-a131-4238-8ede-366a412bfcdd}, !- Space Type Name
  ,                                       !- Default Construction Set Name
  ,                                       !- Default Schedule Set Name
  -0,                                     !- Direction of Relative North {deg}
  0,                                      !- X Origin {m}
  0,                                      !- Y Origin {m}
  0,                                      !- Z Origin {m}
  ,                                       !- Building Story Name
  {1b508d87-3f3e-464a-85cd-c674081a3061}, !- Thermal Zone Name
  ,                                       !- Part of Total Floor Area
  ,                                       !- Design Specification Outdoor Air Object Name
  {1b58f108-6189-4425-8df0-11568ea29f3c}; !- Building Unit Name

OS:Surface,
  {784c655b-4c0b-4743-aef2-926d72debfa4}, !- Handle
  Surface 18,                             !- Name
  Wall,                                   !- Surface Type
  ,                                       !- Construction Name
  {cd4f35fd-3bfa-41cb-80e0-a58c994bf442}, !- Space Name
  Outdoors,                               !- Outside Boundary Condition
  ,                                       !- Outside Boundary Condition Object
  SunExposed,                             !- Sun Exposure
  WindExposed,                            !- Wind Exposure
  ,                                       !- View Factor to Ground
  ,                                       !- Number of Vertices
  3.73302236800156, -7.46604473600313, 2.4384, !- X,Y,Z Vertex 1 {m}
  3.73302236800156, -7.46604473600313, 0, !- X,Y,Z Vertex 2 {m}
  7.46604473600312, -7.46604473600313, 0, !- X,Y,Z Vertex 3 {m}
  7.46604473600312, -7.46604473600313, 2.4384; !- X,Y,Z Vertex 4 {m}

OS:Surface,
  {c20f5cfe-8de8-46fd-9f53-5b92e5e6ef1d}, !- Handle
  Surface 19,                             !- Name
  Floor,                                  !- Surface Type