!- NOTE: Auto-generated from /test/osw_files/SFD_2000sqft_2story_SL_UA_AllLayersButWallInsulation_CeilingIns.osw

OS:Version,
  {ebe30266-e2df-4936-acf0-72c5e24452d0}, !- Handle
  2.5.0;                                  !- Version Identifier

OS:Building,
  {bf305633-c5a1-4881-9edf-ca5e1a8e1274}, !- Handle
  Building,                               !- Name
  ,                                       !- Building Sector Type
  ,                                       !- North Axis {deg}
  ,                                       !- Nominal Floor to Floor Height {m}
  ,                                       !- Space Type Name
  ,                                       !- Default Construction Set Name
  ,                                       !- Default Schedule Set Name
  2,                                      !- Standards Number of Stories
  2,                                      !- Standards Number of Above Ground Stories
  singlefamilydetached,                   !- Standards Building Type
  1;                                      !- Standards Number of Living Units

OS:YearDescription,
  {513d8dda-86cb-442a-b01c-1f7f0e0ac70e}; !- Handle

OS:SimulationControl,
  {2c487a4c-bac9-4ac5-b669-1e49d9da7c2b}, !- Handle
  ,                                       !- Do Zone Sizing Calculation
  ,                                       !- Do System Sizing Calculation
  ,                                       !- Do Plant Sizing Calculation
  No,                                     !- Run Simulation for Sizing Periods
  ;                                       !- Run Simulation for Weather File Run Periods

OS:Timestep,
  {4ebc9f1e-4707-402e-9844-67eb1ffbd522}, !- Handle
  6;                                      !- Number of Timesteps per Hour

OS:RunPeriod,
  {28df894d-6af9-4fb8-8f56-df1753344aa3}, !- Handle
  Run Period,                             !- Name
  1,                                      !- Begin Month
  1,                                      !- Begin Day of Month
  12,                                     !- End Month
  31,                                     !- End Day of Month
  ,                                       !- Use Weather File Holidays and Special Days
  ,                                       !- Use Weather File Daylight Saving Period
  ,                                       !- Apply Weekend Holiday Rule
  ,                                       !- Use Weather File Rain Indicators
  ,                                       !- Use Weather File Snow Indicators
  ;                                       !- Number of Times Runperiod to be Repeated

OS:Sizing:Parameters,
  {dde5af6f-7923-4600-a28a-7556673a0266}, !- Handle
  1.0,                                    !- Heating Sizing Factor
  1.0;                                    !- Cooling Sizing Factor

OS:ShadowCalculation,
  {ca758bea-4416-4626-9bba-3d8795c79bd6}, !- Handle
  20,                                     !- Calculation Frequency
  200;                                    !- Maximum Figures in Shadow Overlap Calculations

OS:SurfaceConvectionAlgorithm:Inside,
  {aaabfc36-718a-4ab0-b622-f186ebb45230}, !- Handle
  TARP;                                   !- Algorithm

OS:SurfaceConvectionAlgorithm:Outside,
  {9a0a9f6f-4bbd-4b12-a121-9492a1fcd7d6}, !- Handle
  DOE-2;                                  !- Algorithm

OS:HeatBalanceAlgorithm,
  {9d93e563-e1e0-46d7-9e39-d1c8aceb7212}, !- Handle
  ConductionTransferFunction,             !- Algorithm
  200;                                    !- Surface Temperature Upper Limit {C}

OS:ZoneCapacitanceMultiplier:ResearchSpecial,
  {6bfced16-b16f-47f6-8223-f7e267d75d19}, !- Handle
  ,                                       !- Temperature Capacity Multiplier
  15,                                     !- Humidity Capacity Multiplier
  ;                                       !- Carbon Dioxide Capacity Multiplier

OS:ThermalZone,
  {8b8dfebe-0143-499b-834b-798e8562fa85}, !- Handle
  living zone,                            !- Name
  ,                                       !- Multiplier
  ,                                       !- Ceiling Height {m}
  ,                                       !- Volume {m3}
  ,                                       !- Floor Area {m2}
  ,                                       !- Zone Inside Convection Algorithm
  ,                                       !- Zone Outside Convection Algorithm
  ,                                       !- Zone Conditioning Equipment List Name
  {53cc6d0f-a5f6-441c-aa73-eafeae2945b9}, !- Zone Air Inlet Port List
  {058fc6f8-753d-4c35-a17b-bc3bb0f46798}, !- Zone Air Exhaust Port List
  {d8a85f9d-1658-4253-8891-696e01a423aa}, !- Zone Air Node Name
  ,                                       !- Zone Return Air Node Name
  ,                                       !- Primary Daylighting Control Name
  ,                                       !- Fraction of Zone Controlled by Primary Daylighting Control
  ,                                       !- Secondary Daylighting Control Name
  ,                                       !- Fraction of Zone Controlled by Secondary Daylighting Control
  ,                                       !- Illuminance Map Name
  ,                                       !- Group Rendering Name
  ,                                       !- Thermostat Name
  No;                                     !- Use Ideal Air Loads

OS:Node,
  {c0721bab-1a43-4fcd-8277-c308367c9898}, !- Handle
  Node 1,                                 !- Name
  {d8a85f9d-1658-4253-8891-696e01a423aa}, !- Inlet Port
  ;                                       !- Outlet Port

OS:Connection,
  {d8a85f9d-1658-4253-8891-696e01a423aa}, !- Handle
  {ea80fcb4-0659-4c73-9ee4-7362eff033d3}, !- Name
  {8b8dfebe-0143-499b-834b-798e8562fa85}, !- Source Object
  11,                                     !- Outlet Port
  {c0721bab-1a43-4fcd-8277-c308367c9898}, !- Target Object
  2;                                      !- Inlet Port

OS:PortList,
  {53cc6d0f-a5f6-441c-aa73-eafeae2945b9}, !- Handle
  {e7344acc-f147-4d1f-ae5c-ebc9cd7bd03b}, !- Name
  {8b8dfebe-0143-499b-834b-798e8562fa85}; !- HVAC Component

OS:PortList,
  {058fc6f8-753d-4c35-a17b-bc3bb0f46798}, !- Handle
  {a7f89d3a-3404-4ac5-bb84-fe02f6b8aeb3}, !- Name
  {8b8dfebe-0143-499b-834b-798e8562fa85}; !- HVAC Component

OS:Sizing:Zone,
  {33dd0ac6-744d-4940-a459-82c4c013a797}, !- Handle
  {8b8dfebe-0143-499b-834b-798e8562fa85}, !- Zone or ZoneList Name
  SupplyAirTemperature,                   !- Zone Cooling Design Supply Air Temperature Input Method
  14,                                     !- Zone Cooling Design Supply Air Temperature {C}
  11.11,                                  !- Zone Cooling Design Supply Air Temperature Difference {deltaC}
  SupplyAirTemperature,                   !- Zone Heating Design Supply Air Temperature Input Method
  40,                                     !- Zone Heating Design Supply Air Temperature {C}
  11.11,                                  !- Zone Heating Design Supply Air Temperature Difference {deltaC}
  0.0085,                                 !- Zone Cooling Design Supply Air Humidity Ratio {kg-H2O/kg-air}
  0.008,                                  !- Zone Heating Design Supply Air Humidity Ratio {kg-H2O/kg-air}
  ,                                       !- Zone Heating Sizing Factor
  ,                                       !- Zone Cooling Sizing Factor
  DesignDay,                              !- Cooling Design Air Flow Method
  ,                                       !- Cooling Design Air Flow Rate {m3/s}
  ,                                       !- Cooling Minimum Air Flow per Zone Floor Area {m3/s-m2}
  ,                                       !- Cooling Minimum Air Flow {m3/s}
  ,                                       !- Cooling Minimum Air Flow Fraction
  DesignDay,                              !- Heating Design Air Flow Method
  ,                                       !- Heating Design Air Flow Rate {m3/s}
  ,                                       !- Heating Maximum Air Flow per Zone Floor Area {m3/s-m2}
  ,                                       !- Heating Maximum Air Flow {m3/s}
  ,                                       !- Heating Maximum Air Flow Fraction
  ,                                       !- Design Zone Air Distribution Effectiveness in Cooling Mode
  ,                                       !- Design Zone Air Distribution Effectiveness in Heating Mode
  No,                                     !- Account for Dedicated Outdoor Air System
  NeutralSupplyAir,                       !- Dedicated Outdoor Air System Control Strategy
  autosize,                               !- Dedicated Outdoor Air Low Setpoint Temperature for Design {C}
  autosize;                               !- Dedicated Outdoor Air High Setpoint Temperature for Design {C}

OS:ZoneHVAC:EquipmentList,
  {f236bae1-0a32-49e5-80db-22c1c0af59f2}, !- Handle
  Zone HVAC Equipment List 1,             !- Name
  {8b8dfebe-0143-499b-834b-798e8562fa85}; !- Thermal Zone

OS:Space,
  {30871660-874c-4db3-8afc-b03d2dc868cd}, !- Handle
  living space,                           !- Name
  {77b358d5-3e99-43bb-85ec-1d48f245e3cf}, !- Space Type Name
  ,                                       !- Default Construction Set Name
  ,                                       !- Default Schedule Set Name
  -0,                                     !- Direction of Relative North {deg}
  0,                                      !- X Origin {m}
  0,                                      !- Y Origin {m}
  0,                                      !- Z Origin {m}
  ,                                       !- Building Story Name
  {8b8dfebe-0143-499b-834b-798e8562fa85}, !- Thermal Zone Name
  ,                                       !- Part of Total Floor Area
  ,                                       !- Design Specification Outdoor Air Object Name
  {f1bc49b1-4033-41f4-9174-2ecaa55e961c}; !- Building Unit Name

OS:Surface,
  {ecbf34eb-358e-47fe-9121-0477b6e15d63}, !- Handle
  Surface 1,                              !- Name
  Floor,                                  !- Surface Type
  ,                                       !- Construction Name
  {30871660-874c-4db3-8afc-b03d2dc868cd}, !- Space Name
  Ground,                                 !- Outside Boundary Condition
  ,                                       !- Outside Boundary Condition Object
  NoSun,                                  !- Sun Exposure
  NoWind,                                 !- Wind Exposure
  ,                                       !- View Factor to Ground
  ,                                       !- Number of Vertices
  0, 0, 0,                                !- X,Y,Z Vertex 1 {m}
  0, 6.81553519541936, 0,                 !- X,Y,Z Vertex 2 {m}
  13.6310703908387, 6.81553519541936, 0,  !- X,Y,Z Vertex 3 {m}
  13.6310703908387, 0, 0;                 !- X,Y,Z Vertex 4 {m}

OS:Surface,
  {2ae3e7f7-413b-40bf-b545-e0c20a22db0b}, !- Handle
  Surface 2,                              !- Name
  Wall,                                   !- Surface Type
  {886be325-b8a3-4706-ada1-0f492111f4b8}, !- Construction Name
  {30871660-874c-4db3-8afc-b03d2dc868cd}, !- Space Name
  Outdoors,                               !- Outside Boundary Condition
  ,                                       !- Outside Boundary Condition Object
  SunExposed,                             !- Sun Exposure
  WindExposed,                            !- Wind Exposure
  ,                                       !- View Factor to Ground
  ,                                       !- Number of Vertices
  0, 6.81553519541936, 2.4384,            !- X,Y,Z Vertex 1 {m}
  0, 6.81553519541936, 0,                 !- X,Y,Z Vertex 2 {m}
  0, 0, 0,                                !- X,Y,Z Vertex 3 {m}
  0, 0, 2.4384;                           !- X,Y,Z Vertex 4 {m}

OS:Surface,
  {199645ba-b22d-41f2-8d80-a54f9fc115f4}, !- Handle
  Surface 3,                              !- Name
  Wall,                                   !- Surface Type
  {886be325-b8a3-4706-ada1-0f492111f4b8}, !- Construction Name
  {30871660-874c-4db3-8afc-b03d2dc868cd}, !- Space Name
  Outdoors,                               !- Outside Boundary Condition
  ,                                       !- Outside Boundary Condition Object
  SunExposed,                             !- Sun Exposure
  WindExposed,                            !- Wind Exposure
  ,                                       !- View Factor to Ground
  ,                                       !- Number of Vertices
  13.6310703908387, 6.81553519541936, 2.4384, !- X,Y,Z Vertex 1 {m}
  13.6310703908387, 6.81553519541936, 0,  !- X,Y,Z Vertex 2 {m}
  0, 6.81553519541936, 0,                 !- X,Y,Z Vertex 3 {m}
  0, 6.81553519541936, 2.4384;            !- X,Y,Z Vertex 4 {m}

OS:Surface,
  {f43f1eef-c77c-411c-ad73-07ea0186803d}, !- Handle
  Surface 4,                              !- Name
  Wall,                                   !- Surface Type
  {886be325-b8a3-4706-ada1-0f492111f4b8}, !- Construction Name
  {30871660-874c-4db3-8afc-b03d2dc868cd}, !- Space Name
  Outdoors,                               !- Outside Boundary Condition
  ,                                       !- Outside Boundary Condition Object
  SunExposed,                             !- Sun Exposure
  WindExposed,                            !- Wind Exposure
  ,                                       !- View Factor to Ground
  ,                                       !- Number of Vertices
  13.6310703908387, 0, 2.4384,            !- X,Y,Z Vertex 1 {m}
  13.6310703908387, 0, 0,                 !- X,Y,Z Vertex 2 {m}
  13.6310703908387, 6.81553519541936, 0,  !- X,Y,Z Vertex 3 {m}
  13.6310703908387, 6.81553519541936, 2.4384; !- X,Y,Z Vertex 4 {m}

OS:Surface,
  {7dff2859-8a39-4d68-9bbe-5e9c8ced6c14}, !- Handle
  Surface 5,                              !- Name
  Wall,                                   !- Surface Type
  {886be325-b8a3-4706-ada1-0f492111f4b8}, !- Construction Name
  {30871660-874c-4db3-8afc-b03d2dc868cd}, !- Space Name
  Outdoors,                               !- Outside Boundary Condition
  ,                                       !- Outside Boundary Condition Object
  SunExposed,                             !- Sun Exposure
  WindExposed,                            !- Wind Exposure
  ,                                       !- View Factor to Ground
  ,                                       !- Number of Vertices
  0, 0, 2.4384,                           !- X,Y,Z Vertex 1 {m}
  0, 0, 0,                                !- X,Y,Z Vertex 2 {m}
  13.6310703908387, 0, 0,                 !- X,Y,Z Vertex 3 {m}
  13.6310703908387, 0, 2.4384;            !- X,Y,Z Vertex 4 {m}

OS:Surface,
  {9f5fd9fe-fa71-43c8-9a99-36665ce1836d}, !- Handle
  Surface 6,                              !- Name
  RoofCeiling,                            !- Surface Type
  ,                                       !- Construction Name
  {30871660-874c-4db3-8afc-b03d2dc868cd}, !- Space Name
  Surface,                                !- Outside Boundary Condition
  {86bd05eb-2d1f-4df6-920c-5b6b94102d77}, !- Outside Boundary Condition Object
  NoSun,                                  !- Sun Exposure
  NoWind,                                 !- Wind Exposure
  ,                                       !- View Factor to Ground
  ,                                       !- Number of Vertices
  13.6310703908387, 0, 2.4384,            !- X,Y,Z Vertex 1 {m}
  13.6310703908387, 6.81553519541936, 2.4384, !- X,Y,Z Vertex 2 {m}
  0, 6.81553519541936, 2.4384,            !- X,Y,Z Vertex 3 {m}
  0, 0, 2.4384;                           !- X,Y,Z Vertex 4 {m}

OS:SpaceType,
  {77b358d5-3e99-43bb-85ec-1d48f245e3cf}, !- Handle
  Space Type 1,                           !- Name
  ,                                       !- Default Construction Set Name
  ,                                       !- Default Schedule Set Name
  ,                                       !- Group Rendering Name
  ,                                       !- Design Specification Outdoor Air Object Name
  ,                                       !- Standards Building Type
  living;                                 !- Standards Space Type

OS:Space,
  {86dd3f13-93ca-4f5c-a8b1-52f8a15b502b}, !- Handle
  living space|story 2,                   !- Name
  {77b358d5-3e99-43bb-85ec-1d48f245e3cf}, !- Space Type Name
  ,                                       !- Default Construction Set Name
  ,                                       !- Default Schedule Set Name
  -0,                                     !- Direction of Relative North {deg}
  0,                                      !- X Origin {m}
  0,                                      !- Y Origin {m}
  2.4384,                                 !- Z Origin {m}
  ,                                       !- Building Story Name
  {8b8dfebe-0143-499b-834b-798e8562fa85}, !- Thermal Zone Name
  ,                                       !- Part of Total Floor Area
  ,                                       !- Design Specification Outdoor Air Object Name
  {f1bc49b1-4033-41f4-9174-2ecaa55e961c}; !- Building Unit Name

OS:Surface,
  {86bd05eb-2d1f-4df6-920c-5b6b94102d77}, !- Handle
  Surface 7,                              !- Name
  Floor,                                  !- Surface Type
  ,                                       !- Construction Name
  {86dd3f13-93ca-4f5c-a8b1-52f8a15b502b}, !- Space Name
  Surface,                                !- Outside Boundary Condition
  {9f5fd9fe-fa71-43c8-9a99-36665ce1836d}, !- Outside Boundary Condition Object
  NoSun,                                  !- Sun Exposure
  NoWind,                                 !- Wind Exposure
  ,                                       !- View Factor to Ground
  ,                                       !- Number of Vertices
  0, 0, 0,                                !- X,Y,Z Vertex 1 {m}
  0, 6.81553519541936, 0,                 !- X,Y,Z Vertex 2 {m}
  13.6310703908387, 6.81553519541936, 0,  !- X,Y,Z Vertex 3 {m}
  13.6310703908387, 0, 0;                 !- X,Y,Z Vertex 4 {m}

OS:Surface,
  {82a3002a-327c-415f-8a88-b0508d809ce3}, !- Handle
  Surface 8,                              !- Name
  Wall,                                   !- Surface Type
  {886be325-b8a3-4706-ada1-0f492111f4b8}, !- Construction Name
  {86dd3f13-93ca-4f5c-a8b1-52f8a15b502b}, !- Space Name
  Outdoors,                               !- Outside Boundary Condition
  ,                                       !- Outside Boundary Condition Object
  SunExposed,                             !- Sun Exposure
  WindExposed,                            !- Wind Exposure
  ,                                       !- View Factor to Ground
  ,                                       !- Number of Vertices
  0, 6.81553519541936, 2.4384,            !- X,Y,Z Vertex 1 {m}
  0, 6.81553519541936, 0,                 !- X,Y,Z Vertex 2 {m}
  0, 0, 0,                                !- X,Y,Z Vertex 3 {m}
  0, 0, 2.4384;                           !- X,Y,Z Vertex 4 {m}

OS:Surface,
  {7ce06954-f067-48e7-b480-93ef4d54c6c1}, !- Handle
  Surface 9,                              !- Name
  Wall,                                   !- Surface Type
  {886be325-b8a3-4706-ada1-0f492111f4b8}, !- Construction Name
  {86dd3f13-93ca-4f5c-a8b1-52f8a15b502b}, !- Space Name
  Outdoors,                               !- Outside Boundary Condition
  ,                                       !- Outside Boundary Condition Object
  SunExposed,                             !- Sun Exposure
  WindExposed,                            !- Wind Exposure
  ,                                       !- View Factor to Ground
  ,                                       !- Number of Vertices
  13.6310703908387, 6.81553519541936, 2.4384, !- X,Y,Z Vertex 1 {m}
  13.6310703908387, 6.81553519541936, 0,  !- X,Y,Z Vertex 2 {m}
  0, 6.81553519541936, 0,                 !- X,Y,Z Vertex 3 {m}
  0, 6.81553519541936, 2.4384;            !- X,Y,Z Vertex 4 {m}

OS:Surface,
  {fdc00962-6caa-4481-a8f2-c0dce5ceaa0b}, !- Handle
  Surface 10,                             !- Name
  Wall,                                   !- Surface Type
  {886be325-b8a3-4706-ada1-0f492111f4b8}, !- Construction Name
  {86dd3f13-93ca-4f5c-a8b1-52f8a15b502b}, !- Space Name
  Outdoors,                               !- Outside Boundary Condition
  ,                                       !- Outside Boundary Condition Object
  SunExposed,                             !- Sun Exposure
  WindExposed,                            !- Wind Exposure
  ,                                       !- View Factor to Ground
  ,                                       !- Number of Vertices
  13.6310703908387, 0, 2.4384,            !- X,Y,Z Vertex 1 {m}
  13.6310703908387, 0, 0,                 !- X,Y,Z Vertex 2 {m}
  13.6310703908387, 6.81553519541936, 0,  !- X,Y,Z Vertex 3 {m}
  13.6310703908387, 6.81553519541936, 2.4384; !- X,Y,Z Vertex 4 {m}

OS:Surface,
  {2dd04f1e-bd38-41d5-aaf4-01851b018d84}, !- Handle
  Surface 11,                             !- Name
  Wall,                                   !- Surface Type
  {886be325-b8a3-4706-ada1-0f492111f4b8}, !- Construction Name
  {86dd3f13-93ca-4f5c-a8b1-52f8a15b502b}, !- Space Name
  Outdoors,                               !- Outside Boundary Condition
  ,                                       !- Outside Boundary Condition Object
  SunExposed,                             !- Sun Exposure
  WindExposed,                            !- Wind Exposure
  ,                                       !- View Factor to Ground
  ,                                       !- Number of Vertices
  0, 0, 2.4384,                           !- X,Y,Z Vertex 1 {m}
  0, 0, 0,                                !- X,Y,Z Vertex 2 {m}
  13.6310703908387, 0, 0,                 !- X,Y,Z Vertex 3 {m}
  13.6310703908387, 0, 2.4384;            !- X,Y,Z Vertex 4 {m}

OS:Surface,
  {d53af294-65f7-4c90-a5b5-d3d0be9927b7}, !- Handle
  Surface 12,                             !- Name
  RoofCeiling,                            !- Surface Type
  {23086a65-58c4-4d69-8962-9851b95d14a3}, !- Construction Name
  {86dd3f13-93ca-4f5c-a8b1-52f8a15b502b}, !- Space Name
  Surface,                                !- Outside Boundary Condition
  {7d2db646-ef42-4508-8491-8f81657e8521}, !- Outside Boundary Condition Object
  NoSun,                                  !- Sun Exposure
  NoWind,                                 !- Wind Exposure
  ,                                       !- View Factor to Ground
  ,                                       !- Number of Vertices
  13.6310703908387, 0, 2.4384,            !- X,Y,Z Vertex 1 {m}
  13.6310703908387, 6.81553519541936, 2.4384, !- X,Y,Z Vertex 2 {m}
  0, 6.81553519541936, 2.4384,            !- X,Y,Z Vertex 3 {m}
  0, 0, 2.4384;                           !- X,Y,Z Vertex 4 {m}

OS:Surface,
  {7d2db646-ef42-4508-8491-8f81657e8521}, !- Handle
  Surface 13,                             !- Name
  Floor,                                  !- Surface Type
  {2d1bafa8-3abc-4b64-b472-63a8d9426bf1}, !- Construction Name
  {83bc421b-d1f3-4612-bd36-1c8b6cad351b}, !- Space Name
  Surface,                                !- Outside Boundary Condition
  {d53af294-65f7-4c90-a5b5-d3d0be9927b7}, !- Outside Boundary Condition Object
  NoSun,                                  !- Sun Exposure
  NoWind,                                 !- Wind Exposure
  ,                                       !- View Factor to Ground
  ,                                       !- Number of Vertices
  0, 6.81553519541936, 0,                 !- X,Y,Z Vertex 1 {m}
  13.6310703908387, 6.81553519541936, 0,  !- X,Y,Z Vertex 2 {m}
  13.6310703908387, 0, 0,                 !- X,Y,Z Vertex 3 {m}
  0, 0, 0;                                !- X,Y,Z Vertex 4 {m}

OS:Surface,
  {a2e10786-5bc7-4339-ba98-03da351e6658}, !- Handle
  Surface 14,                             !- Name
  RoofCeiling,                            !- Surface Type
  {be03deaa-fd37-4f80-bb4d-e540963cc6f7}, !- Construction Name
  {83bc421b-d1f3-4612-bd36-1c8b6cad351b}, !- Space Name
  Outdoors,                               !- Outside Boundary Condition
  ,                                       !- Outside Boundary Condition Object
  SunExposed,                             !- Sun Exposure
  WindExposed,                            !- Wind Exposure
  ,                                       !- View Factor to Ground
  ,                                       !- Number of Vertices
  13.6310703908387, 3.40776759770968, 1.70388379885484, !- X,Y,Z Vertex 1 {m}
  0, 3.40776759770968, 1.70388379885484,  !- X,Y,Z Vertex 2 {m}
  0, 0, 0,                                !- X,Y,Z Vertex 3 {m}
  13.6310703908387, 0, 0;                 !- X,Y,Z Vertex 4 {m}

OS:Surface,
  {3527ff56-0c2b-4128-8740-1d2c272e9b34}, !- Handle
  Surface 15,                             !- Name
  RoofCeiling,                            !- Surface Type
  {be03deaa-fd37-4f80-bb4d-e540963cc6f7}, !- Construction Name
  {83bc421b-d1f3-4612-bd36-1c8b6cad351b}, !- Space Name
  Outdoors,                               !- Outside Boundary Condition
  ,                                       !- Outside Boundary Condition Object
  SunExposed,                             !- Sun Exposure
  WindExposed,                            !- Wind Exposure
  ,                                       !- View Factor to Ground
  ,                                       !- Number of Vertices
  0, 3.40776759770968, 1.70388379885484,  !- X,Y,Z Vertex 1 {m}
  13.6310703908387, 3.40776759770968, 1.70388379885484, !- X,Y,Z Vertex 2 {m}
  13.6310703908387, 6.81553519541936, 0,  !- X,Y,Z Vertex 3 {m}
  0, 6.81553519541936, 0;                 !- X,Y,Z Vertex 4 {m}

OS:Surface,
  {cefaf0d5-d039-4ad7-ab1c-13138b5c4ae6}, !- Handle
  Surface 16,                             !- Name
  Wall,                                   !- Surface Type
  {d4e7fa8a-a68a-4aeb-9ec2-494f6b8bfe63}, !- Construction Name
  {83bc421b-d1f3-4612-bd36-1c8b6cad351b}, !- Space Name
  Outdoors,                               !- Outside Boundary Condition
  ,                                       !- Outside Boundary Condition Object
  SunExposed,                             !- Sun Exposure
  WindExposed,                            !- Wind Exposure
  ,                                       !- View Factor to Ground
  ,                                       !- Number of Vertices
  0, 3.40776759770968, 1.70388379885484,  !- X,Y,Z Vertex 1 {m}
  0, 6.81553519541936, 0,                 !- X,Y,Z Vertex 2 {m}
  0, 0, 0;                                !- X,Y,Z Vertex 3 {m}

OS:Surface,
  {91fd5293-f753-4a2b-ba78-167b2cb512ca}, !- Handle
  Surface 17,                             !- Name
  Wall,                                   !- Surface Type
  {d4e7fa8a-a68a-4aeb-9ec2-494f6b8bfe63}, !- Construction Name
  {83bc421b-d1f3-4612-bd36-1c8b6cad351b}, !- Space Name
  Outdoors,                               !- Outside Boundary Condition
  ,                                       !- Outside Boundary Condition Object
  SunExposed,                             !- Sun Exposure
  WindExposed,                            !- Wind Exposure
  ,                                       !- View Factor to Ground
  ,                                       !- Number of Vertices
  13.6310703908387, 3.40776759770968, 1.70388379885484, !- X,Y,Z Vertex 1 {m}
  13.6310703908387, 0, 0,                 !- X,Y,Z Vertex 2 {m}
  13.6310703908387, 6.81553519541936, 0;  !- X,Y,Z Vertex 3 {m}

OS:Space,
  {83bc421b-d1f3-4612-bd36-1c8b6cad351b}, !- Handle
  unfinished attic space,                 !- Name
  {2afa23da-606d-4db2-91af-4e24bac4b687}, !- Space Type Name
  ,                                       !- Default Construction Set Name
  ,                                       !- Default Schedule Set Name
  -0,                                     !- Direction of Relative North {deg}
  0,                                      !- X Origin {m}
  0,                                      !- Y Origin {m}
  4.8768,                                 !- Z Origin {m}
  ,                                       !- Building Story Name
  {63adee92-40b1-4340-85b9-83063d7c632c}; !- Thermal Zone Name

OS:ThermalZone,
  {63adee92-40b1-4340-85b9-83063d7c632c}, !- Handle
  unfinished attic zone,                  !- Name
  ,                                       !- Multiplier
  ,                                       !- Ceiling Height {m}
  ,                                       !- Volume {m3}
  ,                                       !- Floor Area {m2}
  ,                                       !- Zone Inside Convection Algorithm
  ,                                       !- Zone Outside Convection Algorithm
  ,                                       !- Zone Conditioning Equipment List Name
  {fac4cc0e-28f0-4e31-bde4-af60200b9dcc}, !- Zone Air Inlet Port List
  {96c36ad2-51ec-4d5d-8ca2-de64a6672acd}, !- Zone Air Exhaust Port List
  {f80aab90-fc53-4887-8d15-3f64db226868}, !- Zone Air Node Name
  ,                                       !- Zone Return Air Node Name
  ,                                       !- Primary Daylighting Control Name
  ,                                       !- Fraction of Zone Controlled by Primary Daylighting Control
  ,                                       !- Secondary Daylighting Control Name
  ,                                       !- Fraction of Zone Controlled by Secondary Daylighting Control
  ,                                       !- Illuminance Map Name
  ,                                       !- Group Rendering Name
  ,                                       !- Thermostat Name
  No;                                     !- Use Ideal Air Loads

OS:Node,
  {5c178e16-71f6-4bad-aec2-773eb679a623}, !- Handle
  Node 2,                                 !- Name
  {f80aab90-fc53-4887-8d15-3f64db226868}, !- Inlet Port
  ;                                       !- Outlet Port

OS:Connection,
  {f80aab90-fc53-4887-8d15-3f64db226868}, !- Handle
  {ed4f6ac8-f4cb-4d44-87bc-f76d18e9bc19}, !- Name