!- NOTE: Auto-generated from /test/osw_files/SFD_2000sqft_2story_SL_FA_LeftRight.osw

OS:Version,
  {2f02f09c-759e-4963-b36d-15c723f7cf32}, !- Handle
  2.6.0;                                  !- Version Identifier

OS:Building,
  {48df0c34-e746-4c50-b93a-d13623a3bf8e}, !- Handle
  Building 1,                             !- Name
  ,                                       !- Building Sector Type
  0,                                      !- North Axis {deg}
  ,                                       !- Nominal Floor to Floor Height {m}
  ,                                       !- Space Type Name
  ,                                       !- Default Construction Set Name
  ,                                       !- Default Schedule Set Name
  3,                                      !- Standards Number of Stories
  3,                                      !- Standards Number of Above Ground Stories
  singlefamilydetached,                   !- Standards Building Type
  1;                                      !- Standards Number of Living Units

OS:Facility,
  {7fb0d3b1-b66f-4a44-b29d-f11cc32e23ab}; !- Handle

OS:Site,
  {ac7790f1-744c-4177-b3fb-25d1972c5c7a}, !- Handle
  Site 1,                                 !- Name
  ,                                       !- Latitude {deg}
  ,                                       !- Longitude {deg}
  ,                                       !- Time Zone {hr}
  ,                                       !- Elevation {m}
  ;                                       !- Terrain

OS:SimulationControl,
  {ad0ad798-1692-4517-b522-72bd77a5f152}, !- Handle
  ,                                       !- Do Zone Sizing Calculation
  ,                                       !- Do System Sizing Calculation
  ,                                       !- Do Plant Sizing Calculation
  No;                                     !- Run Simulation for Sizing Periods

OS:Sizing:Parameters,
  {22b2f51f-c513-4f3c-a24f-ebc3241349aa}, !- Handle
  1.25,                                   !- Heating Sizing Factor
  1.15;                                   !- Cooling Sizing Factor

OS:Timestep,
  {3efa4443-a2eb-4020-bdfa-b99897f39813}, !- Handle
  6;                                      !- Number of Timesteps per Hour

OS:ShadowCalculation,
  {e879bb20-4e94-4422-95fe-f97aff4cb6f4}, !- Handle
  20,                                     !- Calculation Frequency
  200;                                    !- Maximum Figures in Shadow Overlap Calculations

OS:HeatBalanceAlgorithm,
  {7c68ca9b-a8d3-49f8-bcc5-709aa3232a19}, !- Handle
  ConductionTransferFunction,             !- Algorithm
  200;                                    !- Surface Temperature Upper Limit {C}

OS:RunPeriod,
  {0c6e52a8-43af-4f7a-974c-6246f0206c4d}, !- Handle
  Run Period 1,                           !- Name
  1,                                      !- Begin Month
  1,                                      !- Begin Day of Month
  12,                                     !- End Month
  31,                                     !- End Day of Month
  ,                                       !- Use Weather File Holidays and Special Days
  ,                                       !- Use Weather File Daylight Saving Period
  ,                                       !- Apply Weekend Holiday Rule
  ,                                       !- Use Weather File Rain Indicators
  ,                                       !- Use Weather File Snow Indicators
  ;                                       !- Number of Times Runperiod to be Repeated

OS:LifeCycleCost:Parameters,
  {b623f905-da02-4fa2-b4cb-73bd989357a2}, !- Handle
  ,                                       !- Analysis Type
  ,                                       !- Discounting Convention
  ,                                       !- Inflation Approach
  ,                                       !- Real Discount Rate
  ,                                       !- Nominal Discount Rate
  ,                                       !- Inflation
  ,                                       !- Base Date Month
  ,                                       !- Base Date Year
  ,                                       !- Service Date Month
  ,                                       !- Service Date Year
  ;                                       !- Length of Study Period in Years

OS:SurfaceConvectionAlgorithm:Outside,
  {9637b4fa-6460-4ff7-a944-acd99a31bfda}, !- Handle
  DOE-2;                                  !- Algorithm

OS:SurfaceConvectionAlgorithm:Inside,
  {7eecc2e1-bdcb-4deb-aa59-bce522643f3f}, !- Handle
  TARP;                                   !- Algorithm

OS:ZoneCapacitanceMultiplier:ResearchSpecial,
  {452a362a-9947-4a96-bf8e-b9240cd1f16e}, !- Handle
  ,                                       !- Temperature Capacity Multiplier
  15,                                     !- Humidity Capacity Multiplier
  ;                                       !- Carbon Dioxide Capacity Multiplier

OS:ThermalZone,
  {42cfa905-58c5-4ad6-bc72-3060b10f628a}, !- Handle
  living zone,                            !- Name
  ,                                       !- Multiplier
  ,                                       !- Ceiling Height {m}
  ,                                       !- Volume {m3}
  ,                                       !- Floor Area {m2}
  ,                                       !- Zone Inside Convection Algorithm
  ,                                       !- Zone Outside Convection Algorithm
  ,                                       !- Zone Conditioning Equipment List Name
  {b899bafb-f7b0-439b-b9f4-3c49d8480e7b}, !- Zone Air Inlet Port List
  {4b6ff297-2c82-4941-bd8a-8e70769371e5}, !- Zone Air Exhaust Port List
  {444dc0d8-057c-4d33-bac1-71b9f04a88f6}, !- Zone Air Node Name
  ,                                       !- Zone Return Air Node Name
  ,                                       !- Primary Daylighting Control Name
  ,                                       !- Fraction of Zone Controlled by Primary Daylighting Control
  ,                                       !- Secondary Daylighting Control Name
  ,                                       !- Fraction of Zone Controlled by Secondary Daylighting Control
  ,                                       !- Illuminance Map Name
  ,                                       !- Group Rendering Name
  ,                                       !- Thermostat Name
  No;                                     !- Use Ideal Air Loads

OS:Node,
  {2fa22e75-c9c6-40f8-90be-8944d205e011}, !- Handle
  Node 1,                                 !- Name
  {444dc0d8-057c-4d33-bac1-71b9f04a88f6}, !- Inlet Port
  ;                                       !- Outlet Port

OS:Connection,
  {444dc0d8-057c-4d33-bac1-71b9f04a88f6}, !- Handle
  {2229b322-a00c-4fe2-b589-c8562c12c98d}, !- Name
  {42cfa905-58c5-4ad6-bc72-3060b10f628a}, !- Source Object
  11,                                     !- Outlet Port
  {2fa22e75-c9c6-40f8-90be-8944d205e011}, !- Target Object
  2;                                      !- Inlet Port

OS:PortList,
  {b899bafb-f7b0-439b-b9f4-3c49d8480e7b}, !- Handle
  {a67f372a-6787-4752-81b3-bb537a875500}, !- Name
  {42cfa905-58c5-4ad6-bc72-3060b10f628a}; !- HVAC Component

OS:PortList,
  {4b6ff297-2c82-4941-bd8a-8e70769371e5}, !- Handle
  {8f34a6b3-2f4c-4433-95c5-73beeddf742f}, !- Name
  {42cfa905-58c5-4ad6-bc72-3060b10f628a}; !- HVAC Component

OS:Sizing:Zone,
  {7576d43a-cce0-4ee8-9ee6-54361a008721}, !- Handle
  {42cfa905-58c5-4ad6-bc72-3060b10f628a}, !- Zone or ZoneList Name
  SupplyAirTemperature,                   !- Zone Cooling Design Supply Air Temperature Input Method
  14,                                     !- Zone Cooling Design Supply Air Temperature {C}
  11.11,                                  !- Zone Cooling Design Supply Air Temperature Difference {deltaC}
  SupplyAirTemperature,                   !- Zone Heating Design Supply Air Temperature Input Method
  40,                                     !- Zone Heating Design Supply Air Temperature {C}
  11.11,                                  !- Zone Heating Design Supply Air Temperature Difference {deltaC}
  0.0085,                                 !- Zone Cooling Design Supply Air Humidity Ratio {kg-H2O/kg-air}
  0.008,                                  !- Zone Heating Design Supply Air Humidity Ratio {kg-H2O/kg-air}
  ,                                       !- Zone Heating Sizing Factor
  ,                                       !- Zone Cooling Sizing Factor
  DesignDay,                              !- Cooling Design Air Flow Method
  ,                                       !- Cooling Design Air Flow Rate {m3/s}
  ,                                       !- Cooling Minimum Air Flow per Zone Floor Area {m3/s-m2}
  ,                                       !- Cooling Minimum Air Flow {m3/s}
  ,                                       !- Cooling Minimum Air Flow Fraction
  DesignDay,                              !- Heating Design Air Flow Method
  ,                                       !- Heating Design Air Flow Rate {m3/s}
  ,                                       !- Heating Maximum Air Flow per Zone Floor Area {m3/s-m2}
  ,                                       !- Heating Maximum Air Flow {m3/s}
  ,                                       !- Heating Maximum Air Flow Fraction
  ,                                       !- Design Zone Air Distribution Effectiveness in Cooling Mode
  ,                                       !- Design Zone Air Distribution Effectiveness in Heating Mode
  No,                                     !- Account for Dedicated Outdoor Air System
  NeutralSupplyAir,                       !- Dedicated Outdoor Air System Control Strategy
  autosize,                               !- Dedicated Outdoor Air Low Setpoint Temperature for Design {C}
  autosize;                               !- Dedicated Outdoor Air High Setpoint Temperature for Design {C}

OS:ZoneHVAC:EquipmentList,
  {87bbe066-a57b-4e3b-8671-e532f50f8617}, !- Handle
  Zone HVAC Equipment List 1,             !- Name
  {42cfa905-58c5-4ad6-bc72-3060b10f628a}; !- Thermal Zone

OS:Space,
  {fd5fe13e-b4dc-4f05-9e02-d3ff1fbf0a77}, !- Handle
  living space,                           !- Name
  {988fc8e3-2ef7-4762-b154-96905ae5e8b5}, !- Space Type Name
  ,                                       !- Default Construction Set Name
  ,                                       !- Default Schedule Set Name
  -0,                                     !- Direction of Relative North {deg}
  0,                                      !- X Origin {m}
  0,                                      !- Y Origin {m}
  0,                                      !- Z Origin {m}
  ,                                       !- Building Story Name
  {42cfa905-58c5-4ad6-bc72-3060b10f628a}, !- Thermal Zone Name
  ,                                       !- Part of Total Floor Area
  ,                                       !- Design Specification Outdoor Air Object Name
  {beaac779-350b-4655-94b7-df1394327602}; !- Building Unit Name

OS:Surface,
  {05a8d656-b19a-4684-af79-0d48d5ebc96c}, !- Handle
  Surface 1,                              !- Name
  Floor,                                  !- Surface Type
  ,                                       !- Construction Name
  {fd5fe13e-b4dc-4f05-9e02-d3ff1fbf0a77}, !- Space Name
  Foundation,                             !- Outside Boundary Condition
  ,                                       !- Outside Boundary Condition Object
  NoSun,                                  !- Sun Exposure
  NoWind,                                 !- Wind Exposure
  ,                                       !- View Factor to Ground
  ,                                       !- Number of Vertices
  0, 0, 0,                                !- X,Y,Z Vertex 1 {m}
  0, 11.129722368505, 0,                  !- X,Y,Z Vertex 2 {m}
  5.56486118425249, 11.129722368505, 0,   !- X,Y,Z Vertex 3 {m}
  5.56486118425249, 0, 0;                 !- X,Y,Z Vertex 4 {m}

OS:Surface,
  {fcd4365a-c509-442b-8e22-b860b9901abb}, !- Handle
  Surface 2,                              !- Name
  Wall,                                   !- Surface Type
  ,                                       !- Construction Name
  {fd5fe13e-b4dc-4f05-9e02-d3ff1fbf0a77}, !- Space Name
  Outdoors,                               !- Outside Boundary Condition
  ,                                       !- Outside Boundary Condition Object
  SunExposed,                             !- Sun Exposure
  WindExposed,                            !- Wind Exposure
  ,                                       !- View Factor to Ground
  ,                                       !- Number of Vertices
  0, 11.129722368505, 2.4384,             !- X,Y,Z Vertex 1 {m}
  0, 11.129722368505, 0,                  !- X,Y,Z Vertex 2 {m}
  0, 0, 0,                                !- X,Y,Z Vertex 3 {m}
  0, 0, 2.4384;                           !- X,Y,Z Vertex 4 {m}

OS:Surface,
  {8e3fc774-04a2-4114-9347-64f20e7842a5}, !- Handle
  Surface 3,                              !- Name
  Wall,                                   !- Surface Type
  ,                                       !- Construction Name
  {fd5fe13e-b4dc-4f05-9e02-d3ff1fbf0a77}, !- Space Name
  Outdoors,                               !- Outside Boundary Condition
  ,                                       !- Outside Boundary Condition Object
  SunExposed,                             !- Sun Exposure
  WindExposed,                            !- Wind Exposure
  ,                                       !- View Factor to Ground
  ,                                       !- Number of Vertices
  5.56486118425249, 11.129722368505, 2.4384, !- X,Y,Z Vertex 1 {m}
  5.56486118425249, 11.129722368505, 0,   !- X,Y,Z Vertex 2 {m}
  0, 11.129722368505, 0,                  !- X,Y,Z Vertex 3 {m}
  0, 11.129722368505, 2.4384;             !- X,Y,Z Vertex 4 {m}

OS:Surface,
  {0e202b9b-8d15-46d7-b519-40aaaa1b7ac0}, !- Handle
  Surface 4,                              !- Name
  Wall,                                   !- Surface Type
  ,                                       !- Construction Name
  {fd5fe13e-b4dc-4f05-9e02-d3ff1fbf0a77}, !- Space Name
  Outdoors,                               !- Outside Boundary Condition
  ,                                       !- Outside Boundary Condition Object
  SunExposed,                             !- Sun Exposure
  WindExposed,                            !- Wind Exposure
  ,                                       !- View Factor to Ground
  ,                                       !- Number of Vertices
  5.56486118425249, 0, 2.4384,            !- X,Y,Z Vertex 1 {m}
  5.56486118425249, 0, 0,                 !- X,Y,Z Vertex 2 {m}
  5.56486118425249, 11.129722368505, 0,   !- X,Y,Z Vertex 3 {m}
  5.56486118425249, 11.129722368505, 2.4384; !- X,Y,Z Vertex 4 {m}

OS:Surface,
  {769638ab-e2b3-461a-8fa2-84e7eff81ce4}, !- Handle
  Surface 5,                              !- Name
  Wall,                                   !- Surface Type
  ,                                       !- Construction Name
  {fd5fe13e-b4dc-4f05-9e02-d3ff1fbf0a77}, !- Space Name
  Outdoors,                               !- Outside Boundary Condition
  ,                                       !- Outside Boundary Condition Object
  SunExposed,                             !- Sun Exposure
  WindExposed,                            !- Wind Exposure
  ,                                       !- View Factor to Ground
  ,                                       !- Number of Vertices
  0, 0, 2.4384,                           !- X,Y,Z Vertex 1 {m}
  0, 0, 0,                                !- X,Y,Z Vertex 2 {m}
  5.56486118425249, 0, 0,                 !- X,Y,Z Vertex 3 {m}
  5.56486118425249, 0, 2.4384;            !- X,Y,Z Vertex 4 {m}

OS:Surface,
  {d26f455f-1c32-4259-8264-d0c158a78b0e}, !- Handle
  Surface 6,                              !- Name
  RoofCeiling,                            !- Surface Type
  ,                                       !- Construction Name
  {fd5fe13e-b4dc-4f05-9e02-d3ff1fbf0a77}, !- Space Name
  Surface,                                !- Outside Boundary Condition
  {b98980e2-f253-4c14-933b-8fb35c11e0a5}, !- Outside Boundary Condition Object
  NoSun,                                  !- Sun Exposure
  NoWind,                                 !- Wind Exposure
  ,                                       !- View Factor to Ground
  ,                                       !- Number of Vertices
  5.56486118425249, 0, 2.4384,            !- X,Y,Z Vertex 1 {m}
  5.56486118425249, 11.129722368505, 2.4384, !- X,Y,Z Vertex 2 {m}
  0, 11.129722368505, 2.4384,             !- X,Y,Z Vertex 3 {m}
  0, 0, 2.4384;                           !- X,Y,Z Vertex 4 {m}

OS:SpaceType,
  {988fc8e3-2ef7-4762-b154-96905ae5e8b5}, !- Handle
  Space Type 1,                           !- Name
  ,                                       !- Default Construction Set Name
  ,                                       !- Default Schedule Set Name
  ,                                       !- Group Rendering Name
  ,                                       !- Design Specification Outdoor Air Object Name
  ,                                       !- Standards Building Type
  living;                                 !- Standards Space Type

OS:Space,
  {8b486c8a-2c16-4bc2-9b48-781b0e4e17f0}, !- Handle
  living space|story 2,                   !- Name
  {988fc8e3-2ef7-4762-b154-96905ae5e8b5}, !- Space Type Name
  ,                                       !- Default Construction Set Name
  ,                                       !- Default Schedule Set Name
  -0,                                     !- Direction of Relative North {deg}
  0,                                      !- X Origin {m}
  0,                                      !- Y Origin {m}
  2.4384,                                 !- Z Origin {m}
  ,                                       !- Building Story Name
  {42cfa905-58c5-4ad6-bc72-3060b10f628a}, !- Thermal Zone Name
  ,                                       !- Part of Total Floor Area
  ,                                       !- Design Specification Outdoor Air Object Name
  {beaac779-350b-4655-94b7-df1394327602}; !- Building Unit Name

OS:Surface,
  {b98980e2-f253-4c14-933b-8fb35c11e0a5}, !- Handle
  Surface 7,                              !- Name
  Floor,                                  !- Surface Type
  ,                                       !- Construction Name
  {8b486c8a-2c16-4bc2-9b48-781b0e4e17f0}, !- Space Name
  Surface,                                !- Outside Boundary Condition
  {d26f455f-1c32-4259-8264-d0c158a78b0e}, !- Outside Boundary Condition Object
  NoSun,                                  !- Sun Exposure
  NoWind,                                 !- Wind Exposure
  ,                                       !- View Factor to Ground
  ,                                       !- Number of Vertices
  0, 0, 0,                                !- X,Y,Z Vertex 1 {m}
  0, 11.129722368505, 0,                  !- X,Y,Z Vertex 2 {m}
  5.56486118425249, 11.129722368505, 0,   !- X,Y,Z Vertex 3 {m}
  5.56486118425249, 0, 0;                 !- X,Y,Z Vertex 4 {m}

OS:Surface,
  {5f205041-a009-4c85-81e0-20295af86f55}, !- Handle
  Surface 8,                              !- Name
  Wall,                                   !- Surface Type
  ,                                       !- Construction Name
  {8b486c8a-2c16-4bc2-9b48-781b0e4e17f0}, !- Space Name
  Outdoors,                               !- Outside Boundary Condition
  ,                                       !- Outside Boundary Condition Object
  SunExposed,                             !- Sun Exposure
  WindExposed,                            !- Wind Exposure
  ,                                       !- View Factor to Ground
  ,                                       !- Number of Vertices
  0, 11.129722368505, 2.4384,             !- X,Y,Z Vertex 1 {m}
  0, 11.129722368505, 0,                  !- X,Y,Z Vertex 2 {m}
  0, 0, 0,                                !- X,Y,Z Vertex 3 {m}
  0, 0, 2.4384;                           !- X,Y,Z Vertex 4 {m}

OS:Surface,
  {68ea6750-f137-45fb-92a9-e8d09df2a3aa}, !- Handle
  Surface 9,                              !- Name
  Wall,                                   !- Surface Type
  ,                                       !- Construction Name
  {8b486c8a-2c16-4bc2-9b48-781b0e4e17f0}, !- Space Name
  Outdoors,                               !- Outside Boundary Condition
  ,                                       !- Outside Boundary Condition Object
  SunExposed,                             !- Sun Exposure
  WindExposed,                            !- Wind Exposure
  ,                                       !- View Factor to Ground
  ,                                       !- Number of Vertices
  5.56486118425249, 11.129722368505, 2.4384, !- X,Y,Z Vertex 1 {m}
  5.56486118425249, 11.129722368505, 0,   !- X,Y,Z Vertex 2 {m}
  0, 11.129722368505, 0,                  !- X,Y,Z Vertex 3 {m}
  0, 11.129722368505, 2.4384;             !- X,Y,Z Vertex 4 {m}

OS:Surface,
  {966cdb97-00ea-47cc-b020-46136d848e6b}, !- Handle
  Surface 10,                             !- Name
  Wall,                                   !- Surface Type
  ,                                       !- Construction Name
  {8b486c8a-2c16-4bc2-9b48-781b0e4e17f0}, !- Space Name
  Outdoors,                               !- Outside Boundary Condition
  ,                                       !- Outside Boundary Condition Object
  SunExposed,                             !- Sun Exposure
  WindExposed,                            !- Wind Exposure
  ,                                       !- View Factor to Ground
  ,                                       !- Number of Vertices
  5.56486118425249, 0, 2.4384,            !- X,Y,Z Vertex 1 {m}
  5.56486118425249, 0, 0,                 !- X,Y,Z Vertex 2 {m}
  5.56486118425249, 11.129722368505, 0,   !- X,Y,Z Vertex 3 {m}
  5.56486118425249, 11.129722368505, 2.4384; !- X,Y,Z Vertex 4 {m}

OS:Surface,
  {ae12a989-981a-4ea1-9984-8bd76c098d2e}, !- Handle
  Surface 11,                             !- Name
  Wall,                                   !- Surface Type
  ,                                       !- Construction Name
  {8b486c8a-2c16-4bc2-9b48-781b0e4e17f0}, !- Space Name
  Outdoors,                               !- Outside Boundary Condition
  ,                                       !- Outside Boundary Condition Object
  SunExposed,                             !- Sun Exposure
  WindExposed,                            !- Wind Exposure
  ,                                       !- View Factor to Ground
  ,                                       !- Number of Vertices
  0, 0, 2.4384,                           !- X,Y,Z Vertex 1 {m}
  0, 0, 0,                                !- X,Y,Z Vertex 2 {m}
  5.56486118425249, 0, 0,                 !- X,Y,Z Vertex 3 {m}
  5.56486118425249, 0, 2.4384;            !- X,Y,Z Vertex 4 {m}

OS:Surface,
  {6839646e-7fba-4d4f-8370-0448c0f5dcaa}, !- Handle
  Surface 12,                             !- Name
  RoofCeiling,                            !- Surface Type
  ,                                       !- Construction Name
  {8b486c8a-2c16-4bc2-9b48-781b0e4e17f0}, !- Space Name
  Surface,                                !- Outside Boundary Condition
  {bfd39b87-2bbc-4da4-89a7-83c131b74ae8}, !- Outside Boundary Condition Object
  NoSun,                                  !- Sun Exposure
  NoWind,                                 !- Wind Exposure
  ,                                       !- View Factor to Ground
  ,                                       !- Number of Vertices
  5.56486118425249, 0, 2.4384,            !- X,Y,Z Vertex 1 {m}
  5.56486118425249, 11.129722368505, 2.4384, !- X,Y,Z Vertex 2 {m}
  0, 11.129722368505, 2.4384,             !- X,Y,Z Vertex 3 {m}
  0, 0, 2.4384;                           !- X,Y,Z Vertex 4 {m}

OS:Surface,
  {bfd39b87-2bbc-4da4-89a7-83c131b74ae8}, !- Handle
  Surface 13,                             !- Name
  Floor,                                  !- Surface Type
  ,                                       !- Construction Name
  {3e38d2fb-f7c5-43bf-8364-eacdadc80d8c}, !- Space Name
  Surface,                                !- Outside Boundary Condition
  {6839646e-7fba-4d4f-8370-0448c0f5dcaa}, !- Outside Boundary Condition Object
  NoSun,                                  !- Sun Exposure
  NoWind,                                 !- Wind Exposure
  ,                                       !- View Factor to Ground
  ,                                       !- Number of Vertices
  0, 11.129722368505, 0,                  !- X,Y,Z Vertex 1 {m}
  5.56486118425249, 11.129722368505, 0,   !- X,Y,Z Vertex 2 {m}
  5.56486118425249, 0, 0,                 !- X,Y,Z Vertex 3 {m}
  0, 0, 0;                                !- X,Y,Z Vertex 4 {m}

OS:Surface,
  {2ea024ab-1df5-4287-a8aa-6f1a6c7c2bf9}, !- Handle
  Surface 14,                             !- Name
  RoofCeiling,                            !- Surface Type
  ,                                       !- Construction Name
  {3e38d2fb-f7c5-43bf-8364-eacdadc80d8c}, !- Space Name
  Outdoors,                               !- Outside Boundary Condition
  ,                                       !- Outside Boundary Condition Object
  SunExposed,                             !- Sun Exposure
  WindExposed,                            !- Wind Exposure
  ,                                       !- View Factor to Ground
  ,                                       !- Number of Vertices
  2.78243059212624, 11.129722368505, 1.39121529606312, !- X,Y,Z Vertex 1 {m}
  2.78243059212624, 0, 1.39121529606312,  !- X,Y,Z Vertex 2 {m}
  5.56486118425249, 0, 0,                 !- X,Y,Z Vertex 3 {m}
  5.56486118425249, 11.129722368505, 0;   !- X,Y,Z Vertex 4 {m}

OS:Surface,
  {64bf0fd4-a1fb-43be-9115-fd76cbff0bc9}, !- Handle
  Surface 15,                             !- Name
  RoofCeiling,                            !- Surface Type
  ,                                       !- Construction Name
  {3e38d2fb-f7c5-43bf-8364-eacdadc80d8c}, !- Space Name
  Outdoors,                               !- Outside Boundary Condition
  ,                                       !- Outside Boundary Condition Object
  SunExposed,                             !- Sun Exposure
  WindExposed,                            !- Wind Exposure
  ,                                       !- View Factor to Ground
  ,                                       !- Number of Vertices
  2.78243059212624, 0, 1.39121529606312,  !- X,Y,Z Vertex 1 {m}
  2.78243059212624, 11.129722368505, 1.39121529606312, !- X,Y,Z Vertex 2 {m}
  0, 11.129722368505, 0,                  !- X,Y,Z Vertex 3 {m}
  0, 0, 0;                                !- X,Y,Z Vertex 4 {m}

OS:Surface,
  {d1394a70-af95-439c-ba32-cf75d444d953}, !- Handle
  Surface 16,                             !- Name
  Wall,                                   !- Surface Type
  ,                                       !- Construction Name
  {3e38d2fb-f7c5-43bf-8364-eacdadc80d8c}, !- Space Name
  Outdoors,                               !- Outside Boundary Condition
  ,                                       !- Outside Boundary Condition Object
  SunExposed,                             !- Sun Exposure
  WindExposed,                            !- Wind Exposure
  ,                                       !- View Factor to Ground
  ,                                       !- Number of Vertices
  2.78243059212624, 0, 1.39121529606312,  !- X,Y,Z Vertex 1 {m}
  0, 0, 0,                                !- X,Y,Z Vertex 2 {m}
  5.56486118425249, 0, 0;                 !- X,Y,Z Vertex 3 {m}

OS:Surface,
  {08f55d31-8c31-4b9c-8617-7244d21987b2}, !- Handle
  Surface 17,                             !- Name
  Wall,                                   !- Surface Type
  ,                                       !- Construction Name
  {3e38d2fb-f7c5-43bf-8364-eacdadc80d8c}, !- Space Name
  Outdoors,                               !- Outside Boundary Condition
  ,                                       !- Outside Boundary Condition Object
  SunExposed,                             !- Sun Exposure
  WindExposed,                            !- Wind Exposure
  ,                                       !- View Factor to Ground
  ,                                       !- Number of Vertices
  2.78243059212624, 11.129722368505, 1.39121529606312, !- X,Y,Z Vertex 1 {m}
  5.56486118425249, 11.129722368505, 0,   !- X,Y,Z Vertex 2 {m}
  0, 11.129722368505, 0;                  !- X,Y,Z Vertex 3 {m}

OS:Space,
  {3e38d2fb-f7c5-43bf-8364-eacdadc80d8c}, !- Handle
  finished attic space,                   !- Name
  {988fc8e3-2ef7-4762-b154-96905ae5e8b5}, !- Space Type Name
  ,                                       !- Default Construction Set Name
  ,                                       !- Default Schedule Set Name
  -0,                                     !- Direction of Relative North {deg}
  0,                                      !- X Origin {m}
  0,                                      !- Y Origin {m}
  4.8768,                                 !- Z Origin {m}
  ,                                       !- Building Story Name
  {42cfa905-58c5-4ad6-bc72-3060b10f628a}, !- Thermal Zone Name
  ,                                       !- Part of Total Floor Area
  ,                                       !- Design Specification Outdoor Air Object Name
  {beaac779-350b-4655-94b7-df1394327602}; !- Building Unit Name

OS:BuildingUnit,
  {beaac779-350b-4655-94b7-df1394327602}, !- Handle
  unit 1,                                 !- Name
  ,                                       !- Rendering Color
  Residential;                            !- Building Unit Type

OS:AdditionalProperties,
  {7c5a987e-593e-4b47-90d8-76329ba24cd7}, !- Handle
  {beaac779-350b-4655-94b7-df1394327602}, !- Object Name
  NumberOfBedrooms,                       !- Feature Name 1
  Integer,                                !- Feature Data Type 1
  3,                                      !- Feature Value 1