!- NOTE: Auto-generated from /test/osw_files/SFD_2000sqft_2story_SL_FA_LeftRight.osw

OS:Version,
  {83b63407-7d29-4b91-9e29-72bcd4bf2ea9}, !- Handle
  2.6.0;                                  !- Version Identifier

OS:Building,
  {bf9a2f85-20ac-413b-a6fe-881e90de7a54}, !- Handle
  Building 1,                             !- Name
  ,                                       !- Building Sector Type
  0,                                      !- North Axis {deg}
  ,                                       !- Nominal Floor to Floor Height {m}
  ,                                       !- Space Type Name
  ,                                       !- Default Construction Set Name
  ,                                       !- Default Schedule Set Name
  3,                                      !- Standards Number of Stories
  3,                                      !- Standards Number of Above Ground Stories
  singlefamilydetached,                   !- Standards Building Type
  1;                                      !- Standards Number of Living Units

OS:Facility,
  {0cc2fce7-3a45-4540-a578-01443f40c4a2}; !- Handle

OS:Site,
  {a0ff9441-ecd7-496c-b780-aef9cb6be077}, !- Handle
  Site 1,                                 !- Name
  ,                                       !- Latitude {deg}
  ,                                       !- Longitude {deg}
  ,                                       !- Time Zone {hr}
  ,                                       !- Elevation {m}
  ;                                       !- Terrain

OS:SimulationControl,
  {dd278973-47d3-4f2d-83c6-ef19b53ce03e}, !- Handle
  ,                                       !- Do Zone Sizing Calculation
  ,                                       !- Do System Sizing Calculation
  ,                                       !- Do Plant Sizing Calculation
  No;                                     !- Run Simulation for Sizing Periods

OS:Sizing:Parameters,
  {a6bff8a5-605a-4366-a8e3-ec0c1f07034d}, !- Handle
  1.25,                                   !- Heating Sizing Factor
  1.15;                                   !- Cooling Sizing Factor

OS:Timestep,
  {07351081-daf5-4f11-98f6-755796292dee}, !- Handle
  6;                                      !- Number of Timesteps per Hour

OS:ShadowCalculation,
  {0d5d70b7-9057-418d-802c-7a5da81fcac2}, !- Handle
  20,                                     !- Calculation Frequency
  200;                                    !- Maximum Figures in Shadow Overlap Calculations

OS:HeatBalanceAlgorithm,
  {88c3bbad-98fc-4131-abc0-7aa85278cdcf}, !- Handle
  ConductionTransferFunction,             !- Algorithm
  200;                                    !- Surface Temperature Upper Limit {C}

OS:RunPeriod,
  {96fc2c92-753b-4387-8456-51d1ff6336ee}, !- Handle
  Run Period 1,                           !- Name
  1,                                      !- Begin Month
  1,                                      !- Begin Day of Month
  12,                                     !- End Month
  31,                                     !- End Day of Month
  ,                                       !- Use Weather File Holidays and Special Days
  ,                                       !- Use Weather File Daylight Saving Period
  ,                                       !- Apply Weekend Holiday Rule
  ,                                       !- Use Weather File Rain Indicators
  ,                                       !- Use Weather File Snow Indicators
  ;                                       !- Number of Times Runperiod to be Repeated

OS:LifeCycleCost:Parameters,
  {f90ad897-c1a2-425c-a267-a46a0a142951}, !- Handle
  ,                                       !- Analysis Type
  ,                                       !- Discounting Convention
  ,                                       !- Inflation Approach
  ,                                       !- Real Discount Rate
  ,                                       !- Nominal Discount Rate
  ,                                       !- Inflation
  ,                                       !- Base Date Month
  ,                                       !- Base Date Year
  ,                                       !- Service Date Month
  ,                                       !- Service Date Year
  ;                                       !- Length of Study Period in Years

OS:SurfaceConvectionAlgorithm:Outside,
  {785c4081-bfd6-48d5-a12b-68544e93d0a5}, !- Handle
  DOE-2;                                  !- Algorithm

OS:SurfaceConvectionAlgorithm:Inside,
  {886d72c6-0f89-455e-9b8f-df165dc1ae93}, !- Handle
  TARP;                                   !- Algorithm

OS:ZoneCapacitanceMultiplier:ResearchSpecial,
  {5bb960f7-906e-4985-8544-220e1b90ea22}, !- Handle
  ,                                       !- Temperature Capacity Multiplier
  15,                                     !- Humidity Capacity Multiplier
  ;                                       !- Carbon Dioxide Capacity Multiplier

OS:ThermalZone,
  {e442d5f1-a963-4a13-89dc-2db1e69530bd}, !- Handle
  living zone,                            !- Name
  ,                                       !- Multiplier
  ,                                       !- Ceiling Height {m}
  ,                                       !- Volume {m3}
  ,                                       !- Floor Area {m2}
  ,                                       !- Zone Inside Convection Algorithm
  ,                                       !- Zone Outside Convection Algorithm
  ,                                       !- Zone Conditioning Equipment List Name
  {b4f03085-9b2e-48d5-884f-9d97a57e9bd9}, !- Zone Air Inlet Port List
  {8ded4891-da38-4937-8d9b-1d52054b6f9e}, !- Zone Air Exhaust Port List
  {9ca91a8e-5747-4f59-97d0-2629bb33567d}, !- Zone Air Node Name
  ,                                       !- Zone Return Air Node Name
  ,                                       !- Primary Daylighting Control Name
  ,                                       !- Fraction of Zone Controlled by Primary Daylighting Control
  ,                                       !- Secondary Daylighting Control Name
  ,                                       !- Fraction of Zone Controlled by Secondary Daylighting Control
  ,                                       !- Illuminance Map Name
  ,                                       !- Group Rendering Name
  ,                                       !- Thermostat Name
  No;                                     !- Use Ideal Air Loads

OS:Node,
  {dfc9ddaa-74c1-472b-93ef-0b7110ddf322}, !- Handle
  Node 1,                                 !- Name
  {9ca91a8e-5747-4f59-97d0-2629bb33567d}, !- Inlet Port
  ;                                       !- Outlet Port

OS:Connection,
  {9ca91a8e-5747-4f59-97d0-2629bb33567d}, !- Handle
  {ab01fc92-e01c-46c8-ae31-6eaeccead28b}, !- Name
  {e442d5f1-a963-4a13-89dc-2db1e69530bd}, !- Source Object
  11,                                     !- Outlet Port
  {dfc9ddaa-74c1-472b-93ef-0b7110ddf322}, !- Target Object
  2;                                      !- Inlet Port

OS:PortList,
  {b4f03085-9b2e-48d5-884f-9d97a57e9bd9}, !- Handle
  {7458d5ce-0fea-44e8-8419-0923d99f17ad}, !- Name
  {e442d5f1-a963-4a13-89dc-2db1e69530bd}; !- HVAC Component

OS:PortList,
  {8ded4891-da38-4937-8d9b-1d52054b6f9e}, !- Handle
  {4f9a464b-2300-49e1-86a7-393a92dcbef4}, !- Name
  {e442d5f1-a963-4a13-89dc-2db1e69530bd}; !- HVAC Component

OS:Sizing:Zone,
  {c9ea5026-618b-44b7-b435-11707354d6f3}, !- Handle
  {e442d5f1-a963-4a13-89dc-2db1e69530bd}, !- Zone or ZoneList Name
  SupplyAirTemperature,                   !- Zone Cooling Design Supply Air Temperature Input Method
  14,                                     !- Zone Cooling Design Supply Air Temperature {C}
  11.11,                                  !- Zone Cooling Design Supply Air Temperature Difference {deltaC}
  SupplyAirTemperature,                   !- Zone Heating Design Supply Air Temperature Input Method
  40,                                     !- Zone Heating Design Supply Air Temperature {C}
  11.11,                                  !- Zone Heating Design Supply Air Temperature Difference {deltaC}
  0.0085,                                 !- Zone Cooling Design Supply Air Humidity Ratio {kg-H2O/kg-air}
  0.008,                                  !- Zone Heating Design Supply Air Humidity Ratio {kg-H2O/kg-air}
  ,                                       !- Zone Heating Sizing Factor
  ,                                       !- Zone Cooling Sizing Factor
  DesignDay,                              !- Cooling Design Air Flow Method
  ,                                       !- Cooling Design Air Flow Rate {m3/s}
  ,                                       !- Cooling Minimum Air Flow per Zone Floor Area {m3/s-m2}
  ,                                       !- Cooling Minimum Air Flow {m3/s}
  ,                                       !- Cooling Minimum Air Flow Fraction
  DesignDay,                              !- Heating Design Air Flow Method
  ,                                       !- Heating Design Air Flow Rate {m3/s}
  ,                                       !- Heating Maximum Air Flow per Zone Floor Area {m3/s-m2}
  ,                                       !- Heating Maximum Air Flow {m3/s}
  ,                                       !- Heating Maximum Air Flow Fraction
  ,                                       !- Design Zone Air Distribution Effectiveness in Cooling Mode
  ,                                       !- Design Zone Air Distribution Effectiveness in Heating Mode
  No,                                     !- Account for Dedicated Outdoor Air System
  NeutralSupplyAir,                       !- Dedicated Outdoor Air System Control Strategy
  autosize,                               !- Dedicated Outdoor Air Low Setpoint Temperature for Design {C}
  autosize;                               !- Dedicated Outdoor Air High Setpoint Temperature for Design {C}

OS:ZoneHVAC:EquipmentList,
  {c29cc829-7c77-4add-92cf-150290618ce4}, !- Handle
  Zone HVAC Equipment List 1,             !- Name
  {e442d5f1-a963-4a13-89dc-2db1e69530bd}; !- Thermal Zone

OS:Space,
  {cbb53dee-8f35-4c3c-a96f-0a39b2195887}, !- Handle
  living space,                           !- Name
  {ec12ed49-a34d-4fb6-b317-d4d1a447b7bd}, !- Space Type Name
  ,                                       !- Default Construction Set Name
  ,                                       !- Default Schedule Set Name
  -0,                                     !- Direction of Relative North {deg}
  0,                                      !- X Origin {m}
  0,                                      !- Y Origin {m}
  0,                                      !- Z Origin {m}
  ,                                       !- Building Story Name
  {e442d5f1-a963-4a13-89dc-2db1e69530bd}, !- Thermal Zone Name
  ,                                       !- Part of Total Floor Area
  ,                                       !- Design Specification Outdoor Air Object Name
  {5c14ce36-784f-4512-9fd3-81ce2c35231a}; !- Building Unit Name

OS:Surface,
  {ef781807-3ded-4a8a-bd88-cf7fcabf5060}, !- Handle
  Surface 1,                              !- Name
  Floor,                                  !- Surface Type
  ,                                       !- Construction Name
  {cbb53dee-8f35-4c3c-a96f-0a39b2195887}, !- Space Name
  Foundation,                             !- Outside Boundary Condition
  ,                                       !- Outside Boundary Condition Object
  NoSun,                                  !- Sun Exposure
  NoWind,                                 !- Wind Exposure
  ,                                       !- View Factor to Ground
  ,                                       !- Number of Vertices
  0, 0, 0,                                !- X,Y,Z Vertex 1 {m}
  0, 11.129722368505, 0,                  !- X,Y,Z Vertex 2 {m}
  5.56486118425249, 11.129722368505, 0,   !- X,Y,Z Vertex 3 {m}
  5.56486118425249, 0, 0;                 !- X,Y,Z Vertex 4 {m}

OS:Surface,
  {757f049c-ec20-46ed-a259-2a413428c676}, !- Handle
  Surface 2,                              !- Name
  Wall,                                   !- Surface Type
  ,                                       !- Construction Name
  {cbb53dee-8f35-4c3c-a96f-0a39b2195887}, !- Space Name
  Outdoors,                               !- Outside Boundary Condition
  ,                                       !- Outside Boundary Condition Object
  SunExposed,                             !- Sun Exposure
  WindExposed,                            !- Wind Exposure
  ,                                       !- View Factor to Ground
  ,                                       !- Number of Vertices
  0, 11.129722368505, 2.4384,             !- X,Y,Z Vertex 1 {m}
  0, 11.129722368505, 0,                  !- X,Y,Z Vertex 2 {m}
  0, 0, 0,                                !- X,Y,Z Vertex 3 {m}
  0, 0, 2.4384;                           !- X,Y,Z Vertex 4 {m}

OS:Surface,
  {bc4142d5-6af5-4886-87a8-17d400e3a016}, !- Handle
  Surface 3,                              !- Name
  Wall,                                   !- Surface Type
  ,                                       !- Construction Name
  {cbb53dee-8f35-4c3c-a96f-0a39b2195887}, !- Space Name
  Outdoors,                               !- Outside Boundary Condition
  ,                                       !- Outside Boundary Condition Object
  SunExposed,                             !- Sun Exposure
  WindExposed,                            !- Wind Exposure
  ,                                       !- View Factor to Ground
  ,                                       !- Number of Vertices
  5.56486118425249, 11.129722368505, 2.4384, !- X,Y,Z Vertex 1 {m}
  5.56486118425249, 11.129722368505, 0,   !- X,Y,Z Vertex 2 {m}
  0, 11.129722368505, 0,                  !- X,Y,Z Vertex 3 {m}
  0, 11.129722368505, 2.4384;             !- X,Y,Z Vertex 4 {m}

OS:Surface,
  {0973f52e-2e11-4014-b01f-1a7523f5aeb8}, !- Handle
  Surface 4,                              !- Name
  Wall,                                   !- Surface Type
  ,                                       !- Construction Name
  {cbb53dee-8f35-4c3c-a96f-0a39b2195887}, !- Space Name
  Outdoors,                               !- Outside Boundary Condition
  ,                                       !- Outside Boundary Condition Object
  SunExposed,                             !- Sun Exposure
  WindExposed,                            !- Wind Exposure
  ,                                       !- View Factor to Ground
  ,                                       !- Number of Vertices
  5.56486118425249, 0, 2.4384,            !- X,Y,Z Vertex 1 {m}
  5.56486118425249, 0, 0,                 !- X,Y,Z Vertex 2 {m}
  5.56486118425249, 11.129722368505, 0,   !- X,Y,Z Vertex 3 {m}
  5.56486118425249, 11.129722368505, 2.4384; !- X,Y,Z Vertex 4 {m}

OS:Surface,
  {4817e1ee-8aa1-4df6-bc32-2548ec4bf998}, !- Handle
  Surface 5,                              !- Name
  Wall,                                   !- Surface Type
  ,                                       !- Construction Name
  {cbb53dee-8f35-4c3c-a96f-0a39b2195887}, !- Space Name
  Outdoors,                               !- Outside Boundary Condition
  ,                                       !- Outside Boundary Condition Object
  SunExposed,                             !- Sun Exposure
  WindExposed,                            !- Wind Exposure
  ,                                       !- View Factor to Ground
  ,                                       !- Number of Vertices
  0, 0, 2.4384,                           !- X,Y,Z Vertex 1 {m}
  0, 0, 0,                                !- X,Y,Z Vertex 2 {m}
  5.56486118425249, 0, 0,                 !- X,Y,Z Vertex 3 {m}
  5.56486118425249, 0, 2.4384;            !- X,Y,Z Vertex 4 {m}

OS:Surface,
  {af738675-7c0c-49ef-aab6-cff58c64e459}, !- Handle
  Surface 6,                              !- Name
  RoofCeiling,                            !- Surface Type
  ,                                       !- Construction Name
  {cbb53dee-8f35-4c3c-a96f-0a39b2195887}, !- Space Name
  Surface,                                !- Outside Boundary Condition
  {a7b1cee2-fc1c-4d36-806d-18abdf8a14b2}, !- Outside Boundary Condition Object
  NoSun,                                  !- Sun Exposure
  NoWind,                                 !- Wind Exposure
  ,                                       !- View Factor to Ground
  ,                                       !- Number of Vertices
  5.56486118425249, 0, 2.4384,            !- X,Y,Z Vertex 1 {m}
  5.56486118425249, 11.129722368505, 2.4384, !- X,Y,Z Vertex 2 {m}
  0, 11.129722368505, 2.4384,             !- X,Y,Z Vertex 3 {m}
  0, 0, 2.4384;                           !- X,Y,Z Vertex 4 {m}

OS:SpaceType,
  {ec12ed49-a34d-4fb6-b317-d4d1a447b7bd}, !- Handle
  Space Type 1,                           !- Name
  ,                                       !- Default Construction Set Name
  ,                                       !- Default Schedule Set Name
  ,                                       !- Group Rendering Name
  ,                                       !- Design Specification Outdoor Air Object Name
  ,                                       !- Standards Building Type
  living;                                 !- Standards Space Type

OS:Space,
  {e062359d-5efd-4afe-a500-f72a73d97f3c}, !- Handle
  living space|story 2,                   !- Name
  {ec12ed49-a34d-4fb6-b317-d4d1a447b7bd}, !- Space Type Name
  ,                                       !- Default Construction Set Name
  ,                                       !- Default Schedule Set Name
  -0,                                     !- Direction of Relative North {deg}
  0,                                      !- X Origin {m}
  0,                                      !- Y Origin {m}
  2.4384,                                 !- Z Origin {m}
  ,                                       !- Building Story Name
  {e442d5f1-a963-4a13-89dc-2db1e69530bd}, !- Thermal Zone Name
  ,                                       !- Part of Total Floor Area
  ,                                       !- Design Specification Outdoor Air Object Name
  {5c14ce36-784f-4512-9fd3-81ce2c35231a}; !- Building Unit Name

OS:Surface,
  {a7b1cee2-fc1c-4d36-806d-18abdf8a14b2}, !- Handle
  Surface 7,                              !- Name
  Floor,                                  !- Surface Type
  ,                                       !- Construction Name
  {e062359d-5efd-4afe-a500-f72a73d97f3c}, !- Space Name
  Surface,                                !- Outside Boundary Condition
  {af738675-7c0c-49ef-aab6-cff58c64e459}, !- Outside Boundary Condition Object
  NoSun,                                  !- Sun Exposure
  NoWind,                                 !- Wind Exposure
  ,                                       !- View Factor to Ground
  ,                                       !- Number of Vertices
  0, 0, 0,                                !- X,Y,Z Vertex 1 {m}
  0, 11.129722368505, 0,                  !- X,Y,Z Vertex 2 {m}
  5.56486118425249, 11.129722368505, 0,   !- X,Y,Z Vertex 3 {m}
  5.56486118425249, 0, 0;                 !- X,Y,Z Vertex 4 {m}

OS:Surface,
  {8759273b-be0e-4e76-8ec5-e24fe6299436}, !- Handle
  Surface 8,                              !- Name
  Wall,                                   !- Surface Type
  ,                                       !- Construction Name
  {e062359d-5efd-4afe-a500-f72a73d97f3c}, !- Space Name
  Outdoors,                               !- Outside Boundary Condition
  ,                                       !- Outside Boundary Condition Object
  SunExposed,                             !- Sun Exposure
  WindExposed,                            !- Wind Exposure
  ,                                       !- View Factor to Ground
  ,                                       !- Number of Vertices
  0, 11.129722368505, 2.4384,             !- X,Y,Z Vertex 1 {m}
  0, 11.129722368505, 0,                  !- X,Y,Z Vertex 2 {m}
  0, 0, 0,                                !- X,Y,Z Vertex 3 {m}
  0, 0, 2.4384;                           !- X,Y,Z Vertex 4 {m}

OS:Surface,
  {aa61407d-4417-4727-911e-8cd8f8e6aa29}, !- Handle
  Surface 9,                              !- Name
  Wall,                                   !- Surface Type
  ,                                       !- Construction Name
  {e062359d-5efd-4afe-a500-f72a73d97f3c}, !- Space Name
  Outdoors,                               !- Outside Boundary Condition
  ,                                       !- Outside Boundary Condition Object
  SunExposed,                             !- Sun Exposure
  WindExposed,                            !- Wind Exposure
  ,                                       !- View Factor to Ground
  ,                                       !- Number of Vertices
  5.56486118425249, 11.129722368505, 2.4384, !- X,Y,Z Vertex 1 {m}
  5.56486118425249, 11.129722368505, 0,   !- X,Y,Z Vertex 2 {m}
  0, 11.129722368505, 0,                  !- X,Y,Z Vertex 3 {m}
  0, 11.129722368505, 2.4384;             !- X,Y,Z Vertex 4 {m}

OS:Surface,
  {bd3ab5c0-fa46-4b87-9c36-2ea04fd56ccb}, !- Handle
  Surface 10,                             !- Name
  Wall,                                   !- Surface Type
  ,                                       !- Construction Name
  {e062359d-5efd-4afe-a500-f72a73d97f3c}, !- Space Name
  Outdoors,                               !- Outside Boundary Condition
  ,                                       !- Outside Boundary Condition Object
  SunExposed,                             !- Sun Exposure
  WindExposed,                            !- Wind Exposure
  ,                                       !- View Factor to Ground
  ,                                       !- Number of Vertices
  5.56486118425249, 0, 2.4384,            !- X,Y,Z Vertex 1 {m}
  5.56486118425249, 0, 0,                 !- X,Y,Z Vertex 2 {m}
  5.56486118425249, 11.129722368505, 0,   !- X,Y,Z Vertex 3 {m}
  5.56486118425249, 11.129722368505, 2.4384; !- X,Y,Z Vertex 4 {m}

OS:Surface,
  {7c7cb242-ffb3-4483-a855-d605de9af46e}, !- Handle
  Surface 11,                             !- Name
  Wall,                                   !- Surface Type
  ,                                       !- Construction Name
  {e062359d-5efd-4afe-a500-f72a73d97f3c}, !- Space Name
  Outdoors,                               !- Outside Boundary Condition
  ,                                       !- Outside Boundary Condition Object
  SunExposed,                             !- Sun Exposure
  WindExposed,                            !- Wind Exposure
  ,                                       !- View Factor to Ground
  ,                                       !- Number of Vertices
  0, 0, 2.4384,                           !- X,Y,Z Vertex 1 {m}
  0, 0, 0,                                !- X,Y,Z Vertex 2 {m}
  5.56486118425249, 0, 0,                 !- X,Y,Z Vertex 3 {m}
  5.56486118425249, 0, 2.4384;            !- X,Y,Z Vertex 4 {m}

OS:Surface,
  {f3fbc5e4-b837-4d25-a312-5da511289668}, !- Handle
  Surface 12,                             !- Name
  RoofCeiling,                            !- Surface Type
  ,                                       !- Construction Name
  {e062359d-5efd-4afe-a500-f72a73d97f3c}, !- Space Name
  Surface,                                !- Outside Boundary Condition
  {5f22ce57-d019-4f76-a804-e7618aa65b17}, !- Outside Boundary Condition Object
  NoSun,                                  !- Sun Exposure
  NoWind,                                 !- Wind Exposure
  ,                                       !- View Factor to Ground
  ,                                       !- Number of Vertices
  5.56486118425249, 0, 2.4384,            !- X,Y,Z Vertex 1 {m}
  5.56486118425249, 11.129722368505, 2.4384, !- X,Y,Z Vertex 2 {m}
  0, 11.129722368505, 2.4384,             !- X,Y,Z Vertex 3 {m}
  0, 0, 2.4384;                           !- X,Y,Z Vertex 4 {m}

OS:Surface,
  {5f22ce57-d019-4f76-a804-e7618aa65b17}, !- Handle
  Surface 13,                             !- Name
  Floor,                                  !- Surface Type
  ,                                       !- Construction Name
  {184a1c72-7fc3-407f-a565-e6153d4742cd}, !- Space Name
  Surface,                                !- Outside Boundary Condition
  {f3fbc5e4-b837-4d25-a312-5da511289668}, !- Outside Boundary Condition Object
  NoSun,                                  !- Sun Exposure
  NoWind,                                 !- Wind Exposure
  ,                                       !- View Factor to Ground
  ,                                       !- Number of Vertices
  0, 11.129722368505, 0,                  !- X,Y,Z Vertex 1 {m}
  5.56486118425249, 11.129722368505, 0,   !- X,Y,Z Vertex 2 {m}
  5.56486118425249, 0, 0,                 !- X,Y,Z Vertex 3 {m}
  0, 0, 0;                                !- X,Y,Z Vertex 4 {m}

OS:Surface,
  {0368801a-15df-46e9-a9c3-c7ae99c8bdcc}, !- Handle
  Surface 14,                             !- Name
  RoofCeiling,                            !- Surface Type
  ,                                       !- Construction Name
  {184a1c72-7fc3-407f-a565-e6153d4742cd}, !- Space Name
  Outdoors,                               !- Outside Boundary Condition
  ,                                       !- Outside Boundary Condition Object
  SunExposed,                             !- Sun Exposure
  WindExposed,                            !- Wind Exposure
  ,                                       !- View Factor to Ground
  ,                                       !- Number of Vertices
  2.78243059212624, 11.129722368505, 1.39121529606312, !- X,Y,Z Vertex 1 {m}
  2.78243059212624, 0, 1.39121529606312,  !- X,Y,Z Vertex 2 {m}
  5.56486118425249, 0, 0,                 !- X,Y,Z Vertex 3 {m}
  5.56486118425249, 11.129722368505, 0;   !- X,Y,Z Vertex 4 {m}

OS:Surface,
  {bc40ea82-46e6-4861-9152-c6603e941e4a}, !- Handle
  Surface 15,                             !- Name
  RoofCeiling,                            !- Surface Type
  ,                                       !- Construction Name
  {184a1c72-7fc3-407f-a565-e6153d4742cd}, !- Space Name
  Outdoors,                               !- Outside Boundary Condition
  ,                                       !- Outside Boundary Condition Object
  SunExposed,                             !- Sun Exposure
  WindExposed,                            !- Wind Exposure
  ,                                       !- View Factor to Ground
  ,                                       !- Number of Vertices
  2.78243059212624, 0, 1.39121529606312,  !- X,Y,Z Vertex 1 {m}
  2.78243059212624, 11.129722368505, 1.39121529606312, !- X,Y,Z Vertex 2 {m}
  0, 11.129722368505, 0,                  !- X,Y,Z Vertex 3 {m}
  0, 0, 0;                                !- X,Y,Z Vertex 4 {m}

OS:Surface,
  {bd15169d-bb91-4d01-8983-91238796399b}, !- Handle
  Surface 16,                             !- Name
  Wall,                                   !- Surface Type
  ,                                       !- Construction Name
  {184a1c72-7fc3-407f-a565-e6153d4742cd}, !- Space Name
  Outdoors,                               !- Outside Boundary Condition
  ,                                       !- Outside Boundary Condition Object
  SunExposed,                             !- Sun Exposure
  WindExposed,                            !- Wind Exposure
  ,                                       !- View Factor to Ground
  ,                                       !- Number of Vertices
  2.78243059212624, 0, 1.39121529606312,  !- X,Y,Z Vertex 1 {m}
  0, 0, 0,                                !- X,Y,Z Vertex 2 {m}
  5.56486118425249, 0, 0;                 !- X,Y,Z Vertex 3 {m}

OS:Surface,
  {60b82b41-195f-40c8-9848-43807045d21e}, !- Handle
  Surface 17,                             !- Name
  Wall,                                   !- Surface Type
  ,                                       !- Construction Name
  {184a1c72-7fc3-407f-a565-e6153d4742cd}, !- Space Name
  Outdoors,                               !- Outside Boundary Condition
  ,                                       !- Outside Boundary Condition Object
  SunExposed,                             !- Sun Exposure
  WindExposed,                            !- Wind Exposure
  ,                                       !- View Factor to Ground
  ,                                       !- Number of Vertices
  2.78243059212624, 11.129722368505, 1.39121529606312, !- X,Y,Z Vertex 1 {m}
  5.56486118425249, 11.129722368505, 0,   !- X,Y,Z Vertex 2 {m}
  0, 11.129722368505, 0;                  !- X,Y,Z Vertex 3 {m}

OS:Space,
  {184a1c72-7fc3-407f-a565-e6153d4742cd}, !- Handle
  finished attic space,                   !- Name
  {ec12ed49-a34d-4fb6-b317-d4d1a447b7bd}, !- Space Type Name
  ,                                       !- Default Construction Set Name
  ,                                       !- Default Schedule Set Name
  -0,                                     !- Direction of Relative North {deg}
  0,                                      !- X Origin {m}
  0,                                      !- Y Origin {m}
  4.8768,                                 !- Z Origin {m}
  ,                                       !- Building Story Name
  {e442d5f1-a963-4a13-89dc-2db1e69530bd}, !- Thermal Zone Name
  ,                                       !- Part of Total Floor Area
  ,                                       !- Design Specification Outdoor Air Object Name
  {5c14ce36-784f-4512-9fd3-81ce2c35231a}; !- Building Unit Name

OS:BuildingUnit,
  {5c14ce36-784f-4512-9fd3-81ce2c35231a}, !- Handle
  unit 1,                                 !- Name
  ,                                       !- Rendering Color
  Residential;                            !- Building Unit Type

OS:AdditionalProperties,
  {48c9e0dd-4baf-443d-b498-842e1064baeb}, !- Handle
  {5c14ce36-784f-4512-9fd3-81ce2c35231a}, !- Object Name
  NumberOfBedrooms,                       !- Feature Name 1
  Integer,                                !- Feature Data Type 1
  3,                                      !- Feature Value 1