!- NOTE: Auto-generated from /test/osw_files/SFD_2000sqft_2story_SL_FA_LeftRight.osw

OS:Version,
  {749c0c53-4bd5-402c-86e8-6ec6088274fd}, !- Handle
  2.6.0;                                  !- Version Identifier

OS:Building,
  {7d8ef080-e54f-41d3-8e7d-6f7c3102a2b2}, !- Handle
  Building 1,                             !- Name
  ,                                       !- Building Sector Type
  0,                                      !- North Axis {deg}
  ,                                       !- Nominal Floor to Floor Height {m}
  ,                                       !- Space Type Name
  ,                                       !- Default Construction Set Name
  ,                                       !- Default Schedule Set Name
  3,                                      !- Standards Number of Stories
  3,                                      !- Standards Number of Above Ground Stories
  singlefamilydetached,                   !- Standards Building Type
  1;                                      !- Standards Number of Living Units

OS:Facility,
  {af855a8b-05b6-443e-8215-40ea83550422}; !- Handle

OS:Site,
  {09eacce5-d2a3-4f7d-8299-b7f636b0e5e1}, !- Handle
  Site 1,                                 !- Name
  ,                                       !- Latitude {deg}
  ,                                       !- Longitude {deg}
  ,                                       !- Time Zone {hr}
  ,                                       !- Elevation {m}
  ;                                       !- Terrain

OS:SimulationControl,
  {757be473-d17e-4f55-b0b9-c701b66828ac}, !- Handle
  ,                                       !- Do Zone Sizing Calculation
  ,                                       !- Do System Sizing Calculation
  ,                                       !- Do Plant Sizing Calculation
  No;                                     !- Run Simulation for Sizing Periods

OS:Sizing:Parameters,
  {9ec951d5-fe0c-4eba-94ec-dcf0d2679167}, !- Handle
  1.25,                                   !- Heating Sizing Factor
  1.15;                                   !- Cooling Sizing Factor

OS:Timestep,
  {625c9893-3fda-4784-bdae-20de7ba45a96}, !- Handle
  6;                                      !- Number of Timesteps per Hour

OS:ShadowCalculation,
  {a3c0dad5-c91d-44e2-ab41-610eac91e56c}, !- Handle
  20,                                     !- Calculation Frequency
  200;                                    !- Maximum Figures in Shadow Overlap Calculations

OS:HeatBalanceAlgorithm,
  {7909e0fd-914e-4211-89ae-18bb28a9fb2d}, !- Handle
  ConductionTransferFunction,             !- Algorithm
  200;                                    !- Surface Temperature Upper Limit {C}

OS:RunPeriod,
  {3df50745-d771-4e1f-8864-dadc915c52c9}, !- Handle
  Run Period 1,                           !- Name
  1,                                      !- Begin Month
  1,                                      !- Begin Day of Month
  12,                                     !- End Month
  31,                                     !- End Day of Month
  ,                                       !- Use Weather File Holidays and Special Days
  ,                                       !- Use Weather File Daylight Saving Period
  ,                                       !- Apply Weekend Holiday Rule
  ,                                       !- Use Weather File Rain Indicators
  ,                                       !- Use Weather File Snow Indicators
  ;                                       !- Number of Times Runperiod to be Repeated

OS:LifeCycleCost:Parameters,
  {1f646d7a-47d8-47cb-a5fc-1c4a0b74c93a}, !- Handle
  ,                                       !- Analysis Type
  ,                                       !- Discounting Convention
  ,                                       !- Inflation Approach
  ,                                       !- Real Discount Rate
  ,                                       !- Nominal Discount Rate
  ,                                       !- Inflation
  ,                                       !- Base Date Month
  ,                                       !- Base Date Year
  ,                                       !- Service Date Month
  ,                                       !- Service Date Year
  ;                                       !- Length of Study Period in Years

OS:SurfaceConvectionAlgorithm:Outside,
  {5839ad32-8c5f-46c5-825f-f7e3d49e8967}, !- Handle
  DOE-2;                                  !- Algorithm

OS:SurfaceConvectionAlgorithm:Inside,
  {4344d2d8-1fae-4c40-9aa0-dbfa44b4d40a}, !- Handle
  TARP;                                   !- Algorithm

OS:ZoneCapacitanceMultiplier:ResearchSpecial,
  {da3f75ac-8767-4007-b4be-b532c01a5e41}, !- Handle
  ,                                       !- Temperature Capacity Multiplier
  15,                                     !- Humidity Capacity Multiplier
  ;                                       !- Carbon Dioxide Capacity Multiplier

OS:ThermalZone,
  {4c9caf68-0f3a-42ca-bccd-4db8daf4d9cc}, !- Handle
  living zone,                            !- Name
  ,                                       !- Multiplier
  ,                                       !- Ceiling Height {m}
  ,                                       !- Volume {m3}
  ,                                       !- Floor Area {m2}
  ,                                       !- Zone Inside Convection Algorithm
  ,                                       !- Zone Outside Convection Algorithm
  ,                                       !- Zone Conditioning Equipment List Name
  {9042f85b-acf3-4920-be04-1fbc7bbbb692}, !- Zone Air Inlet Port List
  {d3041927-e55c-4e76-b854-9701f9ac7030}, !- Zone Air Exhaust Port List
  {129e6f75-fdfc-47fc-b37b-e63205b59c15}, !- Zone Air Node Name
  ,                                       !- Zone Return Air Node Name
  ,                                       !- Primary Daylighting Control Name
  ,                                       !- Fraction of Zone Controlled by Primary Daylighting Control
  ,                                       !- Secondary Daylighting Control Name
  ,                                       !- Fraction of Zone Controlled by Secondary Daylighting Control
  ,                                       !- Illuminance Map Name
  ,                                       !- Group Rendering Name
  ,                                       !- Thermostat Name
  No;                                     !- Use Ideal Air Loads

OS:Node,
  {0671c272-805b-4694-8ca0-4ba93ecafa1a}, !- Handle
  Node 1,                                 !- Name
  {129e6f75-fdfc-47fc-b37b-e63205b59c15}, !- Inlet Port
  ;                                       !- Outlet Port

OS:Connection,
  {129e6f75-fdfc-47fc-b37b-e63205b59c15}, !- Handle
  {6e59e70c-cf83-4f85-b4ca-65f1114a8479}, !- Name
  {4c9caf68-0f3a-42ca-bccd-4db8daf4d9cc}, !- Source Object
  11,                                     !- Outlet Port
  {0671c272-805b-4694-8ca0-4ba93ecafa1a}, !- Target Object
  2;                                      !- Inlet Port

OS:PortList,
  {9042f85b-acf3-4920-be04-1fbc7bbbb692}, !- Handle
  {d675280c-83e2-4116-babd-09aae0944a1d}, !- Name
  {4c9caf68-0f3a-42ca-bccd-4db8daf4d9cc}; !- HVAC Component

OS:PortList,
  {d3041927-e55c-4e76-b854-9701f9ac7030}, !- Handle
  {0e55e206-4a9f-492b-98f5-769c3a3041ce}, !- Name
  {4c9caf68-0f3a-42ca-bccd-4db8daf4d9cc}; !- HVAC Component

OS:Sizing:Zone,
  {5e68e6a1-056b-4d90-b274-676767522d7f}, !- Handle
  {4c9caf68-0f3a-42ca-bccd-4db8daf4d9cc}, !- Zone or ZoneList Name
  SupplyAirTemperature,                   !- Zone Cooling Design Supply Air Temperature Input Method
  14,                                     !- Zone Cooling Design Supply Air Temperature {C}
  11.11,                                  !- Zone Cooling Design Supply Air Temperature Difference {deltaC}
  SupplyAirTemperature,                   !- Zone Heating Design Supply Air Temperature Input Method
  40,                                     !- Zone Heating Design Supply Air Temperature {C}
  11.11,                                  !- Zone Heating Design Supply Air Temperature Difference {deltaC}
  0.0085,                                 !- Zone Cooling Design Supply Air Humidity Ratio {kg-H2O/kg-air}
  0.008,                                  !- Zone Heating Design Supply Air Humidity Ratio {kg-H2O/kg-air}
  ,                                       !- Zone Heating Sizing Factor
  ,                                       !- Zone Cooling Sizing Factor
  DesignDay,                              !- Cooling Design Air Flow Method
  ,                                       !- Cooling Design Air Flow Rate {m3/s}
  ,                                       !- Cooling Minimum Air Flow per Zone Floor Area {m3/s-m2}
  ,                                       !- Cooling Minimum Air Flow {m3/s}
  ,                                       !- Cooling Minimum Air Flow Fraction
  DesignDay,                              !- Heating Design Air Flow Method
  ,                                       !- Heating Design Air Flow Rate {m3/s}
  ,                                       !- Heating Maximum Air Flow per Zone Floor Area {m3/s-m2}
  ,                                       !- Heating Maximum Air Flow {m3/s}
  ,                                       !- Heating Maximum Air Flow Fraction
  ,                                       !- Design Zone Air Distribution Effectiveness in Cooling Mode
  ,                                       !- Design Zone Air Distribution Effectiveness in Heating Mode
  No,                                     !- Account for Dedicated Outdoor Air System
  NeutralSupplyAir,                       !- Dedicated Outdoor Air System Control Strategy
  autosize,                               !- Dedicated Outdoor Air Low Setpoint Temperature for Design {C}
  autosize;                               !- Dedicated Outdoor Air High Setpoint Temperature for Design {C}

OS:ZoneHVAC:EquipmentList,
  {15f7cd53-6d14-43b2-aacf-1cfe3ac5fb59}, !- Handle
  Zone HVAC Equipment List 1,             !- Name
  {4c9caf68-0f3a-42ca-bccd-4db8daf4d9cc}; !- Thermal Zone

OS:Space,
  {1659c2e3-3306-4ffc-a97a-86a20fe12b83}, !- Handle
  living space,                           !- Name
  {0cfcaed8-5efb-4224-980b-85483cdc3bb8}, !- Space Type Name
  ,                                       !- Default Construction Set Name
  ,                                       !- Default Schedule Set Name
  -0,                                     !- Direction of Relative North {deg}
  0,                                      !- X Origin {m}
  0,                                      !- Y Origin {m}
  0,                                      !- Z Origin {m}
  ,                                       !- Building Story Name
  {4c9caf68-0f3a-42ca-bccd-4db8daf4d9cc}, !- Thermal Zone Name
  ,                                       !- Part of Total Floor Area
  ,                                       !- Design Specification Outdoor Air Object Name
  {74057fdb-3883-42c5-bb9b-158a76706045}; !- Building Unit Name

OS:Surface,
  {82fce116-a9d9-43cb-a7cf-56182c3b14a7}, !- Handle
  Surface 1,                              !- Name
  Floor,                                  !- Surface Type
  ,                                       !- Construction Name
  {1659c2e3-3306-4ffc-a97a-86a20fe12b83}, !- Space Name
  Foundation,                             !- Outside Boundary Condition
  ,                                       !- Outside Boundary Condition Object
  NoSun,                                  !- Sun Exposure
  NoWind,                                 !- Wind Exposure
  ,                                       !- View Factor to Ground
  ,                                       !- Number of Vertices
  0, 0, 0,                                !- X,Y,Z Vertex 1 {m}
  0, 11.129722368505, 0,                  !- X,Y,Z Vertex 2 {m}
  5.56486118425249, 11.129722368505, 0,   !- X,Y,Z Vertex 3 {m}
  5.56486118425249, 0, 0;                 !- X,Y,Z Vertex 4 {m}

OS:Surface,
  {b9ebb201-3c95-49d5-9f20-c5b9cde7718f}, !- Handle
  Surface 2,                              !- Name
  Wall,                                   !- Surface Type
  ,                                       !- Construction Name
  {1659c2e3-3306-4ffc-a97a-86a20fe12b83}, !- Space Name
  Outdoors,                               !- Outside Boundary Condition
  ,                                       !- Outside Boundary Condition Object
  SunExposed,                             !- Sun Exposure
  WindExposed,                            !- Wind Exposure
  ,                                       !- View Factor to Ground
  ,                                       !- Number of Vertices
  0, 11.129722368505, 2.4384,             !- X,Y,Z Vertex 1 {m}
  0, 11.129722368505, 0,                  !- X,Y,Z Vertex 2 {m}
  0, 0, 0,                                !- X,Y,Z Vertex 3 {m}
  0, 0, 2.4384;                           !- X,Y,Z Vertex 4 {m}

OS:Surface,
  {fd6d9012-bb21-42f5-a53d-cb1ea238103a}, !- Handle
  Surface 3,                              !- Name
  Wall,                                   !- Surface Type
  ,                                       !- Construction Name
  {1659c2e3-3306-4ffc-a97a-86a20fe12b83}, !- Space Name
  Outdoors,                               !- Outside Boundary Condition
  ,                                       !- Outside Boundary Condition Object
  SunExposed,                             !- Sun Exposure
  WindExposed,                            !- Wind Exposure
  ,                                       !- View Factor to Ground
  ,                                       !- Number of Vertices
  5.56486118425249, 11.129722368505, 2.4384, !- X,Y,Z Vertex 1 {m}
  5.56486118425249, 11.129722368505, 0,   !- X,Y,Z Vertex 2 {m}
  0, 11.129722368505, 0,                  !- X,Y,Z Vertex 3 {m}
  0, 11.129722368505, 2.4384;             !- X,Y,Z Vertex 4 {m}

OS:Surface,
  {5165db30-9970-4a16-a4ee-5aec0b6747d1}, !- Handle
  Surface 4,                              !- Name
  Wall,                                   !- Surface Type
  ,                                       !- Construction Name
  {1659c2e3-3306-4ffc-a97a-86a20fe12b83}, !- Space Name
  Outdoors,                               !- Outside Boundary Condition
  ,                                       !- Outside Boundary Condition Object
  SunExposed,                             !- Sun Exposure
  WindExposed,                            !- Wind Exposure
  ,                                       !- View Factor to Ground
  ,                                       !- Number of Vertices
  5.56486118425249, 0, 2.4384,            !- X,Y,Z Vertex 1 {m}
  5.56486118425249, 0, 0,                 !- X,Y,Z Vertex 2 {m}
  5.56486118425249, 11.129722368505, 0,   !- X,Y,Z Vertex 3 {m}
  5.56486118425249, 11.129722368505, 2.4384; !- X,Y,Z Vertex 4 {m}

OS:Surface,
  {3e6b0615-f458-4607-860c-680cf269acdd}, !- Handle
  Surface 5,                              !- Name
  Wall,                                   !- Surface Type
  ,                                       !- Construction Name
  {1659c2e3-3306-4ffc-a97a-86a20fe12b83}, !- Space Name
  Outdoors,                               !- Outside Boundary Condition
  ,                                       !- Outside Boundary Condition Object
  SunExposed,                             !- Sun Exposure
  WindExposed,                            !- Wind Exposure
  ,                                       !- View Factor to Ground
  ,                                       !- Number of Vertices
  0, 0, 2.4384,                           !- X,Y,Z Vertex 1 {m}
  0, 0, 0,                                !- X,Y,Z Vertex 2 {m}
  5.56486118425249, 0, 0,                 !- X,Y,Z Vertex 3 {m}
  5.56486118425249, 0, 2.4384;            !- X,Y,Z Vertex 4 {m}

OS:Surface,
  {a97bb787-d71b-4138-ac65-295302cf64d9}, !- Handle
  Surface 6,                              !- Name
  RoofCeiling,                            !- Surface Type
  ,                                       !- Construction Name
  {1659c2e3-3306-4ffc-a97a-86a20fe12b83}, !- Space Name
  Surface,                                !- Outside Boundary Condition
  {c9a469d1-4c29-433d-860f-922950cfa43f}, !- Outside Boundary Condition Object
  NoSun,                                  !- Sun Exposure
  NoWind,                                 !- Wind Exposure
  ,                                       !- View Factor to Ground
  ,                                       !- Number of Vertices
  5.56486118425249, 0, 2.4384,            !- X,Y,Z Vertex 1 {m}
  5.56486118425249, 11.129722368505, 2.4384, !- X,Y,Z Vertex 2 {m}
  0, 11.129722368505, 2.4384,             !- X,Y,Z Vertex 3 {m}
  0, 0, 2.4384;                           !- X,Y,Z Vertex 4 {m}

OS:SpaceType,
  {0cfcaed8-5efb-4224-980b-85483cdc3bb8}, !- Handle
  Space Type 1,                           !- Name
  ,                                       !- Default Construction Set Name
  ,                                       !- Default Schedule Set Name
  ,                                       !- Group Rendering Name
  ,                                       !- Design Specification Outdoor Air Object Name
  ,                                       !- Standards Building Type
  living;                                 !- Standards Space Type

OS:Space,
  {3bfed24c-808d-442a-965e-d3a553e7adca}, !- Handle
  living space|story 2,                   !- Name
  {0cfcaed8-5efb-4224-980b-85483cdc3bb8}, !- Space Type Name
  ,                                       !- Default Construction Set Name
  ,                                       !- Default Schedule Set Name
  -0,                                     !- Direction of Relative North {deg}
  0,                                      !- X Origin {m}
  0,                                      !- Y Origin {m}
  2.4384,                                 !- Z Origin {m}
  ,                                       !- Building Story Name
  {4c9caf68-0f3a-42ca-bccd-4db8daf4d9cc}, !- Thermal Zone Name
  ,                                       !- Part of Total Floor Area
  ,                                       !- Design Specification Outdoor Air Object Name
  {74057fdb-3883-42c5-bb9b-158a76706045}; !- Building Unit Name

OS:Surface,
  {c9a469d1-4c29-433d-860f-922950cfa43f}, !- Handle
  Surface 7,                              !- Name
  Floor,                                  !- Surface Type
  ,                                       !- Construction Name
  {3bfed24c-808d-442a-965e-d3a553e7adca}, !- Space Name
  Surface,                                !- Outside Boundary Condition
  {a97bb787-d71b-4138-ac65-295302cf64d9}, !- Outside Boundary Condition Object
  NoSun,                                  !- Sun Exposure
  NoWind,                                 !- Wind Exposure
  ,                                       !- View Factor to Ground
  ,                                       !- Number of Vertices
  0, 0, 0,                                !- X,Y,Z Vertex 1 {m}
  0, 11.129722368505, 0,                  !- X,Y,Z Vertex 2 {m}
  5.56486118425249, 11.129722368505, 0,   !- X,Y,Z Vertex 3 {m}
  5.56486118425249, 0, 0;                 !- X,Y,Z Vertex 4 {m}

OS:Surface,
  {11ffe01a-6d40-4f94-9f89-f0629e7ad585}, !- Handle
  Surface 8,                              !- Name
  Wall,                                   !- Surface Type
  ,                                       !- Construction Name
  {3bfed24c-808d-442a-965e-d3a553e7adca}, !- Space Name
  Outdoors,                               !- Outside Boundary Condition
  ,                                       !- Outside Boundary Condition Object
  SunExposed,                             !- Sun Exposure
  WindExposed,                            !- Wind Exposure
  ,                                       !- View Factor to Ground
  ,                                       !- Number of Vertices
  0, 11.129722368505, 2.4384,             !- X,Y,Z Vertex 1 {m}
  0, 11.129722368505, 0,                  !- X,Y,Z Vertex 2 {m}
  0, 0, 0,                                !- X,Y,Z Vertex 3 {m}
  0, 0, 2.4384;                           !- X,Y,Z Vertex 4 {m}

OS:Surface,
  {a8d8adf0-93d3-409a-b914-8b79ff0d8c06}, !- Handle
  Surface 9,                              !- Name
  Wall,                                   !- Surface Type
  ,                                       !- Construction Name
  {3bfed24c-808d-442a-965e-d3a553e7adca}, !- Space Name
  Outdoors,                               !- Outside Boundary Condition
  ,                                       !- Outside Boundary Condition Object
  SunExposed,                             !- Sun Exposure
  WindExposed,                            !- Wind Exposure
  ,                                       !- View Factor to Ground
  ,                                       !- Number of Vertices
  5.56486118425249, 11.129722368505, 2.4384, !- X,Y,Z Vertex 1 {m}
  5.56486118425249, 11.129722368505, 0,   !- X,Y,Z Vertex 2 {m}
  0, 11.129722368505, 0,                  !- X,Y,Z Vertex 3 {m}
  0, 11.129722368505, 2.4384;             !- X,Y,Z Vertex 4 {m}

OS:Surface,
  {2bb88afb-7225-40a1-803e-28c0210455a8}, !- Handle
  Surface 10,                             !- Name
  Wall,                                   !- Surface Type
  ,                                       !- Construction Name
  {3bfed24c-808d-442a-965e-d3a553e7adca}, !- Space Name
  Outdoors,                               !- Outside Boundary Condition
  ,                                       !- Outside Boundary Condition Object
  SunExposed,                             !- Sun Exposure
  WindExposed,                            !- Wind Exposure
  ,                                       !- View Factor to Ground
  ,                                       !- Number of Vertices
  5.56486118425249, 0, 2.4384,            !- X,Y,Z Vertex 1 {m}
  5.56486118425249, 0, 0,                 !- X,Y,Z Vertex 2 {m}
  5.56486118425249, 11.129722368505, 0,   !- X,Y,Z Vertex 3 {m}
  5.56486118425249, 11.129722368505, 2.4384; !- X,Y,Z Vertex 4 {m}

OS:Surface,
  {b5b32129-35da-4c11-bee8-cc99c53bc8ad}, !- Handle
  Surface 11,                             !- Name
  Wall,                                   !- Surface Type
  ,                                       !- Construction Name
  {3bfed24c-808d-442a-965e-d3a553e7adca}, !- Space Name
  Outdoors,                               !- Outside Boundary Condition
  ,                                       !- Outside Boundary Condition Object
  SunExposed,                             !- Sun Exposure
  WindExposed,                            !- Wind Exposure
  ,                                       !- View Factor to Ground
  ,                                       !- Number of Vertices
  0, 0, 2.4384,                           !- X,Y,Z Vertex 1 {m}
  0, 0, 0,                                !- X,Y,Z Vertex 2 {m}
  5.56486118425249, 0, 0,                 !- X,Y,Z Vertex 3 {m}
  5.56486118425249, 0, 2.4384;            !- X,Y,Z Vertex 4 {m}

OS:Surface,
  {882e2729-2c3a-461c-8cfc-54a14ca12521}, !- Handle
  Surface 12,                             !- Name
  RoofCeiling,                            !- Surface Type
  ,                                       !- Construction Name
  {3bfed24c-808d-442a-965e-d3a553e7adca}, !- Space Name
  Surface,                                !- Outside Boundary Condition
  {c5a46bd9-f8a0-4643-a33b-c71665b5a925}, !- Outside Boundary Condition Object
  NoSun,                                  !- Sun Exposure
  NoWind,                                 !- Wind Exposure
  ,                                       !- View Factor to Ground
  ,                                       !- Number of Vertices
  5.56486118425249, 0, 2.4384,            !- X,Y,Z Vertex 1 {m}
  5.56486118425249, 11.129722368505, 2.4384, !- X,Y,Z Vertex 2 {m}
  0, 11.129722368505, 2.4384,             !- X,Y,Z Vertex 3 {m}
  0, 0, 2.4384;                           !- X,Y,Z Vertex 4 {m}

OS:Surface,
  {c5a46bd9-f8a0-4643-a33b-c71665b5a925}, !- Handle
  Surface 13,                             !- Name
  Floor,                                  !- Surface Type
  ,                                       !- Construction Name
  {76db3000-cf4c-439c-87dc-df98b6464f0b}, !- Space Name
  Surface,                                !- Outside Boundary Condition
  {882e2729-2c3a-461c-8cfc-54a14ca12521}, !- Outside Boundary Condition Object
  NoSun,                                  !- Sun Exposure
  NoWind,                                 !- Wind Exposure
  ,                                       !- View Factor to Ground
  ,                                       !- Number of Vertices
  0, 11.129722368505, 0,                  !- X,Y,Z Vertex 1 {m}
  5.56486118425249, 11.129722368505, 0,   !- X,Y,Z Vertex 2 {m}
  5.56486118425249, 0, 0,                 !- X,Y,Z Vertex 3 {m}
  0, 0, 0;                                !- X,Y,Z Vertex 4 {m}

OS:Surface,
  {2719cf83-226c-4527-878b-a48187d7bf72}, !- Handle
  Surface 14,                             !- Name
  RoofCeiling,                            !- Surface Type
  ,                                       !- Construction Name
  {76db3000-cf4c-439c-87dc-df98b6464f0b}, !- Space Name
  Outdoors,                               !- Outside Boundary Condition
  ,                                       !- Outside Boundary Condition Object
  SunExposed,                             !- Sun Exposure
  WindExposed,                            !- Wind Exposure
  ,                                       !- View Factor to Ground
  ,                                       !- Number of Vertices
  2.78243059212624, 11.129722368505, 1.39121529606312, !- X,Y,Z Vertex 1 {m}
  2.78243059212624, 0, 1.39121529606312,  !- X,Y,Z Vertex 2 {m}
  5.56486118425249, 0, 0,                 !- X,Y,Z Vertex 3 {m}
  5.56486118425249, 11.129722368505, 0;   !- X,Y,Z Vertex 4 {m}

OS:Surface,
  {fce4c965-9bc8-4dc0-9068-7f4b4e2d4177}, !- Handle
  Surface 15,                             !- Name
  RoofCeiling,                            !- Surface Type
  ,                                       !- Construction Name
  {76db3000-cf4c-439c-87dc-df98b6464f0b}, !- Space Name
  Outdoors,                               !- Outside Boundary Condition
  ,                                       !- Outside Boundary Condition Object
  SunExposed,                             !- Sun Exposure
  WindExposed,                            !- Wind Exposure
  ,                                       !- View Factor to Ground
  ,                                       !- Number of Vertices
  2.78243059212624, 0, 1.39121529606312,  !- X,Y,Z Vertex 1 {m}
  2.78243059212624, 11.129722368505, 1.39121529606312, !- X,Y,Z Vertex 2 {m}
  0, 11.129722368505, 0,                  !- X,Y,Z Vertex 3 {m}
  0, 0, 0;                                !- X,Y,Z Vertex 4 {m}

OS:Surface,
  {ba06911f-80fb-4b72-bfab-fb75c1969dde}, !- Handle
  Surface 16,                             !- Name
  Wall,                                   !- Surface Type
  ,                                       !- Construction Name
  {76db3000-cf4c-439c-87dc-df98b6464f0b}, !- Space Name
  Outdoors,                               !- Outside Boundary Condition
  ,                                       !- Outside Boundary Condition Object
  SunExposed,                             !- Sun Exposure
  WindExposed,                            !- Wind Exposure
  ,                                       !- View Factor to Ground
  ,                                       !- Number of Vertices
  2.78243059212624, 0, 1.39121529606312,  !- X,Y,Z Vertex 1 {m}
  0, 0, 0,                                !- X,Y,Z Vertex 2 {m}
  5.56486118425249, 0, 0;                 !- X,Y,Z Vertex 3 {m}

OS:Surface,
  {ccee133a-018a-4eda-b6b1-5c17d7764cab}, !- Handle
  Surface 17,                             !- Name
  Wall,                                   !- Surface Type
  ,                                       !- Construction Name
  {76db3000-cf4c-439c-87dc-df98b6464f0b}, !- Space Name
  Outdoors,                               !- Outside Boundary Condition
  ,                                       !- Outside Boundary Condition Object
  SunExposed,                             !- Sun Exposure
  WindExposed,                            !- Wind Exposure
  ,                                       !- View Factor to Ground
  ,                                       !- Number of Vertices
  2.78243059212624, 11.129722368505, 1.39121529606312, !- X,Y,Z Vertex 1 {m}
  5.56486118425249, 11.129722368505, 0,   !- X,Y,Z Vertex 2 {m}
  0, 11.129722368505, 0;                  !- X,Y,Z Vertex 3 {m}

OS:Space,
  {76db3000-cf4c-439c-87dc-df98b6464f0b}, !- Handle
  finished attic space,                   !- Name
  {0cfcaed8-5efb-4224-980b-85483cdc3bb8}, !- Space Type Name
  ,                                       !- Default Construction Set Name
  ,                                       !- Default Schedule Set Name
  -0,                                     !- Direction of Relative North {deg}
  0,                                      !- X Origin {m}
  0,                                      !- Y Origin {m}
  4.8768,                                 !- Z Origin {m}
  ,                                       !- Building Story Name
  {4c9caf68-0f3a-42ca-bccd-4db8daf4d9cc}, !- Thermal Zone Name
  ,                                       !- Part of Total Floor Area
  ,                                       !- Design Specification Outdoor Air Object Name
  {74057fdb-3883-42c5-bb9b-158a76706045}; !- Building Unit Name

OS:BuildingUnit,
  {74057fdb-3883-42c5-bb9b-158a76706045}, !- Handle
  unit 1,                                 !- Name
  ,                                       !- Rendering Color
  Residential;                            !- Building Unit Type

OS:AdditionalProperties,
  {1e1b51de-d729-4f72-a4ff-c54b0e4ed14e}, !- Handle
  {74057fdb-3883-42c5-bb9b-158a76706045}, !- Object Name
  NumberOfBedrooms,                       !- Feature Name 1
  Integer,                                !- Feature Data Type 1
  3,                                      !- Feature Value 1