!- NOTE: Auto-generated from /test/osw_files/SFD_1000sqft_1story_FB_GRG_UA_DoorArea.osw

OS:Version,
  {bc55aced-e303-4282-8311-22b10af4b7c2}, !- Handle
  2.6.1;                                  !- Version Identifier

OS:Building,
  {d5cf514d-302a-496b-b574-a39f27f7e735}, !- Handle
  Building 1,                             !- Name
  ,                                       !- Building Sector Type
  0,                                      !- North Axis {deg}
  ,                                       !- Nominal Floor to Floor Height {m}
  ,                                       !- Space Type Name
  ,                                       !- Default Construction Set Name
  ,                                       !- Default Schedule Set Name
  2,                                      !- Standards Number of Stories
  1,                                      !- Standards Number of Above Ground Stories
  singlefamilydetached,                   !- Standards Building Type
  1;                                      !- Standards Number of Living Units

OS:Facility,
  {ca80f850-20a6-4357-abc1-bc154944d736}; !- Handle

OS:Site,
  {d3f75fbc-2e13-408e-92b8-525762e2e3ff}, !- Handle
  Site 1,                                 !- Name
  ,                                       !- Latitude {deg}
  ,                                       !- Longitude {deg}
  ,                                       !- Time Zone {hr}
  ,                                       !- Elevation {m}
  ;                                       !- Terrain

OS:SimulationControl,
  {01463904-83a4-4ecd-a401-54a71d8f3472}; !- Handle

OS:Sizing:Parameters,
  {ca4f10b2-692b-4d4e-9fc1-14d5f832b985}, !- Handle
  1.25,                                   !- Heating Sizing Factor
  1.15;                                   !- Cooling Sizing Factor

OS:Timestep,
  {96a4355b-f6cc-443d-8ed2-aafb21e9c785}, !- Handle
  6;                                      !- Number of Timesteps per Hour

OS:ShadowCalculation,
  {871a7781-bd79-4235-9f02-c21bb4b532ed}, !- Handle
  20,                                     !- Calculation Frequency
  15000;                                  !- Maximum Figures in Shadow Overlap Calculations

OS:HeatBalanceAlgorithm,
  {e9eed5e5-af88-4892-8a67-a3bffbc48e94}, !- Handle
  ConductionTransferFunction,             !- Algorithm
  200;                                    !- Surface Temperature Upper Limit {C}

OS:RunPeriod,
  {e6201e18-75e9-4688-bd1c-84de332b9575}, !- Handle
  Run Period 1,                           !- Name
  1,                                      !- Begin Month
  1,                                      !- Begin Day of Month
  12,                                     !- End Month
  31,                                     !- End Day of Month
  ,                                       !- Use Weather File Holidays and Special Days
  ,                                       !- Use Weather File Daylight Saving Period
  ,                                       !- Apply Weekend Holiday Rule
  ,                                       !- Use Weather File Rain Indicators
  ,                                       !- Use Weather File Snow Indicators
  ;                                       !- Number of Times Runperiod to be Repeated

OS:LifeCycleCost:Parameters,
  {d23a8c40-fdfd-40b5-aaa0-f2c6ffbbe5b8}, !- Handle
  ,                                       !- Analysis Type
  ,                                       !- Discounting Convention
  ,                                       !- Inflation Approach
  ,                                       !- Real Discount Rate
  ,                                       !- Nominal Discount Rate
  ,                                       !- Inflation
  ,                                       !- Base Date Month
  ,                                       !- Base Date Year
  ,                                       !- Service Date Month
  ,                                       !- Service Date Year
  ;                                       !- Length of Study Period in Years

OS:ThermalZone,
  {54e260d0-885f-4764-9c8d-b27283a5a889}, !- Handle
  living zone,                            !- Name
  ,                                       !- Multiplier
  ,                                       !- Ceiling Height {m}
  ,                                       !- Volume {m3}
  ,                                       !- Floor Area {m2}
  ,                                       !- Zone Inside Convection Algorithm
  ,                                       !- Zone Outside Convection Algorithm
  ,                                       !- Zone Conditioning Equipment List Name
  {fb274120-973c-4ec0-84c4-72924a207937}, !- Zone Air Inlet Port List
  {9eecb912-6a70-4036-9553-300f16419362}, !- Zone Air Exhaust Port List
  {960b9ae7-0c0d-4376-be55-f5ea2e67cb92}, !- Zone Air Node Name
  {90f76613-9cf2-4093-b4fb-da8cbd295b2c}, !- Zone Return Air Port List
  ,                                       !- Primary Daylighting Control Name
  ,                                       !- Fraction of Zone Controlled by Primary Daylighting Control
  ,                                       !- Secondary Daylighting Control Name
  ,                                       !- Fraction of Zone Controlled by Secondary Daylighting Control
  ,                                       !- Illuminance Map Name
  ,                                       !- Group Rendering Name
  ,                                       !- Thermostat Name
  No;                                     !- Use Ideal Air Loads

OS:Node,
  {1975e77d-790b-45e3-9437-a465d604e82f}, !- Handle
  Node 1,                                 !- Name
  {960b9ae7-0c0d-4376-be55-f5ea2e67cb92}, !- Inlet Port
  ;                                       !- Outlet Port

OS:Connection,
  {960b9ae7-0c0d-4376-be55-f5ea2e67cb92}, !- Handle
  {ff0f92a8-ac5f-4187-a4b7-68ee99d7fe31}, !- Name
  {54e260d0-885f-4764-9c8d-b27283a5a889}, !- Source Object
  11,                                     !- Outlet Port
  {1975e77d-790b-45e3-9437-a465d604e82f}, !- Target Object
  2;                                      !- Inlet Port

OS:PortList,
  {fb274120-973c-4ec0-84c4-72924a207937}, !- Handle
  {991b35fe-7f37-4b5c-97a4-6eb1dff3ee80}, !- Name
  {54e260d0-885f-4764-9c8d-b27283a5a889}; !- HVAC Component

OS:PortList,
  {9eecb912-6a70-4036-9553-300f16419362}, !- Handle
  {3e6d0303-1b65-4439-865b-55c6ebb717c1}, !- Name
  {54e260d0-885f-4764-9c8d-b27283a5a889}; !- HVAC Component

OS:PortList,
  {90f76613-9cf2-4093-b4fb-da8cbd295b2c}, !- Handle
  {c7cae140-211c-4212-8d74-a235fbffd1c8}, !- Name
  {54e260d0-885f-4764-9c8d-b27283a5a889}; !- HVAC Component

OS:Sizing:Zone,
  {b9b80c65-b2d9-41da-bc64-dcf2a0b59f47}, !- Handle
  {54e260d0-885f-4764-9c8d-b27283a5a889}, !- Zone or ZoneList Name
  SupplyAirTemperature,                   !- Zone Cooling Design Supply Air Temperature Input Method
  14,                                     !- Zone Cooling Design Supply Air Temperature {C}
  11.11,                                  !- Zone Cooling Design Supply Air Temperature Difference {deltaC}
  SupplyAirTemperature,                   !- Zone Heating Design Supply Air Temperature Input Method
  40,                                     !- Zone Heating Design Supply Air Temperature {C}
  11.11,                                  !- Zone Heating Design Supply Air Temperature Difference {deltaC}
  0.0085,                                 !- Zone Cooling Design Supply Air Humidity Ratio {kg-H2O/kg-air}
  0.008,                                  !- Zone Heating Design Supply Air Humidity Ratio {kg-H2O/kg-air}
  ,                                       !- Zone Heating Sizing Factor
  ,                                       !- Zone Cooling Sizing Factor
  DesignDay,                              !- Cooling Design Air Flow Method
  ,                                       !- Cooling Design Air Flow Rate {m3/s}
  ,                                       !- Cooling Minimum Air Flow per Zone Floor Area {m3/s-m2}
  ,                                       !- Cooling Minimum Air Flow {m3/s}
  ,                                       !- Cooling Minimum Air Flow Fraction
  DesignDay,                              !- Heating Design Air Flow Method
  ,                                       !- Heating Design Air Flow Rate {m3/s}
  ,                                       !- Heating Maximum Air Flow per Zone Floor Area {m3/s-m2}
  ,                                       !- Heating Maximum Air Flow {m3/s}
  ,                                       !- Heating Maximum Air Flow Fraction
  ,                                       !- Design Zone Air Distribution Effectiveness in Cooling Mode
  ,                                       !- Design Zone Air Distribution Effectiveness in Heating Mode
  No,                                     !- Account for Dedicated Outdoor Air System
  NeutralSupplyAir,                       !- Dedicated Outdoor Air System Control Strategy
  autosize,                               !- Dedicated Outdoor Air Low Setpoint Temperature for Design {C}
  autosize;                               !- Dedicated Outdoor Air High Setpoint Temperature for Design {C}

OS:ZoneHVAC:EquipmentList,
  {66c25b98-a0dd-4e80-b0b5-0bc2082141a9}, !- Handle
  Zone HVAC Equipment List 1,             !- Name
  {54e260d0-885f-4764-9c8d-b27283a5a889}; !- Thermal Zone

OS:ThermalZone,
  {4e509d35-ea62-4b34-a249-77d272b380d7}, !- Handle
  garage zone,                            !- Name
  ,                                       !- Multiplier
  ,                                       !- Ceiling Height {m}
  ,                                       !- Volume {m3}
  ,                                       !- Floor Area {m2}
  ,                                       !- Zone Inside Convection Algorithm
  ,                                       !- Zone Outside Convection Algorithm
  ,                                       !- Zone Conditioning Equipment List Name
  {c80012a7-ffed-4b2d-ac65-8618b400ee71}, !- Zone Air Inlet Port List
  {325d1177-58c6-4391-92cb-2487da6170f4}, !- Zone Air Exhaust Port List
  {1ee3c680-e61b-4887-bd7e-256e485630a3}, !- Zone Air Node Name
  {605c563d-a619-4ec7-a394-0e887ae75104}, !- Zone Return Air Port List
  ,                                       !- Primary Daylighting Control Name
  ,                                       !- Fraction of Zone Controlled by Primary Daylighting Control
  ,                                       !- Secondary Daylighting Control Name
  ,                                       !- Fraction of Zone Controlled by Secondary Daylighting Control
  ,                                       !- Illuminance Map Name
  ,                                       !- Group Rendering Name
  ,                                       !- Thermostat Name
  No;                                     !- Use Ideal Air Loads

OS:Node,
  {ba02bbcf-c0c8-47df-92b4-bebfcb244685}, !- Handle
  Node 2,                                 !- Name
  {1ee3c680-e61b-4887-bd7e-256e485630a3}, !- Inlet Port
  ;                                       !- Outlet Port

OS:Connection,
  {1ee3c680-e61b-4887-bd7e-256e485630a3}, !- Handle
  {956c8e1c-30f3-4299-8821-d877bbbe0e8a}, !- Name
  {4e509d35-ea62-4b34-a249-77d272b380d7}, !- Source Object
  11,                                     !- Outlet Port
  {ba02bbcf-c0c8-47df-92b4-bebfcb244685}, !- Target Object
  2;                                      !- Inlet Port

OS:PortList,
  {c80012a7-ffed-4b2d-ac65-8618b400ee71}, !- Handle
  {fa6a4f77-0774-496e-b789-a65bc557dcf9}, !- Name
  {4e509d35-ea62-4b34-a249-77d272b380d7}; !- HVAC Component

OS:PortList,
  {325d1177-58c6-4391-92cb-2487da6170f4}, !- Handle
  {ebb0d865-f017-48fb-8a44-2f8a10f7d7d6}, !- Name
  {4e509d35-ea62-4b34-a249-77d272b380d7}; !- HVAC Component

OS:PortList,
  {605c563d-a619-4ec7-a394-0e887ae75104}, !- Handle
  {b9ed2283-c9a8-4358-b593-2593862bdfec}, !- Name
  {4e509d35-ea62-4b34-a249-77d272b380d7}; !- HVAC Component

OS:Sizing:Zone,
  {6249529a-8136-4016-b39e-26fdf71e1f64}, !- Handle
  {4e509d35-ea62-4b34-a249-77d272b380d7}, !- Zone or ZoneList Name
  SupplyAirTemperature,                   !- Zone Cooling Design Supply Air Temperature Input Method
  14,                                     !- Zone Cooling Design Supply Air Temperature {C}
  11.11,                                  !- Zone Cooling Design Supply Air Temperature Difference {deltaC}
  SupplyAirTemperature,                   !- Zone Heating Design Supply Air Temperature Input Method
  40,                                     !- Zone Heating Design Supply Air Temperature {C}
  11.11,                                  !- Zone Heating Design Supply Air Temperature Difference {deltaC}
  0.0085,                                 !- Zone Cooling Design Supply Air Humidity Ratio {kg-H2O/kg-air}
  0.008,                                  !- Zone Heating Design Supply Air Humidity Ratio {kg-H2O/kg-air}
  ,                                       !- Zone Heating Sizing Factor
  ,                                       !- Zone Cooling Sizing Factor
  DesignDay,                              !- Cooling Design Air Flow Method
  ,                                       !- Cooling Design Air Flow Rate {m3/s}
  ,                                       !- Cooling Minimum Air Flow per Zone Floor Area {m3/s-m2}
  ,                                       !- Cooling Minimum Air Flow {m3/s}
  ,                                       !- Cooling Minimum Air Flow Fraction
  DesignDay,                              !- Heating Design Air Flow Method
  ,                                       !- Heating Design Air Flow Rate {m3/s}
  ,                                       !- Heating Maximum Air Flow per Zone Floor Area {m3/s-m2}
  ,                                       !- Heating Maximum Air Flow {m3/s}
  ,                                       !- Heating Maximum Air Flow Fraction
  ,                                       !- Design Zone Air Distribution Effectiveness in Cooling Mode
  ,                                       !- Design Zone Air Distribution Effectiveness in Heating Mode
  No,                                     !- Account for Dedicated Outdoor Air System
  NeutralSupplyAir,                       !- Dedicated Outdoor Air System Control Strategy
  autosize,                               !- Dedicated Outdoor Air Low Setpoint Temperature for Design {C}
  autosize;                               !- Dedicated Outdoor Air High Setpoint Temperature for Design {C}

OS:ZoneHVAC:EquipmentList,
  {d0f62201-0fe4-49ed-a12e-5eb92322b288}, !- Handle
  Zone HVAC Equipment List 2,             !- Name
  {4e509d35-ea62-4b34-a249-77d272b380d7}; !- Thermal Zone

OS:Space,
  {cdb758ac-98d8-4778-a8b6-c4f4a0678557}, !- Handle
  garage space,                           !- Name
  {bae63fb9-370c-41d9-91e0-a89557ae6f71}, !- Space Type Name
  ,                                       !- Default Construction Set Name
  ,                                       !- Default Schedule Set Name
  -0,                                     !- Direction of Relative North {deg}
  0,                                      !- X Origin {m}
  0,                                      !- Y Origin {m}
  0,                                      !- Z Origin {m}
  ,                                       !- Building Story Name
  {4e509d35-ea62-4b34-a249-77d272b380d7}; !- Thermal Zone Name

OS:Surface,
  {7da1f5c7-bbf9-4611-acdf-4b4f64a58dc4}, !- Handle
  Surface 1,                              !- Name
  Floor,                                  !- Surface Type
  ,                                       !- Construction Name
  {cdb758ac-98d8-4778-a8b6-c4f4a0678557}, !- Space Name
  Foundation,                             !- Outside Boundary Condition
  ,                                       !- Outside Boundary Condition Object
  NoSun,                                  !- Sun Exposure
  NoWind,                                 !- Wind Exposure
  ,                                       !- View Factor to Ground
  ,                                       !- Number of Vertices
  1.51135555430162, -3.6576, 0,           !- X,Y,Z Vertex 1 {m}
  1.51135555430162, 3.6576, 0,            !- X,Y,Z Vertex 2 {m}
  12.4841555543016, 3.6576, 0,            !- X,Y,Z Vertex 3 {m}
  12.4841555543016, -3.6576, 0;           !- X,Y,Z Vertex 4 {m}

OS:Surface,
  {5aa73647-bf72-4730-9134-b0e3fbc3e193}, !- Handle
  Surface 2,                              !- Name
  Wall,                                   !- Surface Type
  ,                                       !- Construction Name
  {cdb758ac-98d8-4778-a8b6-c4f4a0678557}, !- Space Name
  Surface,                                !- Outside Boundary Condition
  {d0379567-36c0-4a68-a660-78a7fa25ccd8}, !- Outside Boundary Condition Object
  NoSun,                                  !- Sun Exposure
  NoWind,                                 !- Wind Exposure
  ,                                       !- View Factor to Ground
  ,                                       !- Number of Vertices
  1.51135555430162, 3.6576, 2.4384,       !- X,Y,Z Vertex 1 {m}
  1.51135555430162, 3.6576, 0,            !- X,Y,Z Vertex 2 {m}
  1.51135555430162, 0, 0,                 !- X,Y,Z Vertex 3 {m}
  1.51135555430162, 0, 2.4384;            !- X,Y,Z Vertex 4 {m}

OS:Surface,
  {fa2f9280-9eb1-40d1-a9ae-6d13486af463}, !- Handle
  Surface 3,                              !- Name
  Wall,                                   !- Surface Type
  ,                                       !- Construction Name
  {cdb758ac-98d8-4778-a8b6-c4f4a0678557}, !- Space Name
  Surface,                                !- Outside Boundary Condition
  {b7a96c02-b2fc-41b4-9935-d6137f01d962}, !- Outside Boundary Condition Object
  NoSun,                                  !- Sun Exposure
  NoWind,                                 !- Wind Exposure
  ,                                       !- View Factor to Ground
  ,                                       !- Number of Vertices
  12.4841555543016, 3.6576, 2.4384,       !- X,Y,Z Vertex 1 {m}
  12.4841555543016, 3.6576, 0,            !- X,Y,Z Vertex 2 {m}
  1.51135555430162, 3.6576, 0,            !- X,Y,Z Vertex 3 {m}
  1.51135555430162, 3.6576, 2.4384;       !- X,Y,Z Vertex 4 {m}

OS:Surface,
  {4644af31-ad74-4c59-af5c-0cb00e6b6b5d}, !- Handle
  Surface 4,                              !- Name
  Wall,                                   !- Surface Type
  ,                                       !- Construction Name
  {cdb758ac-98d8-4778-a8b6-c4f4a0678557}, !- Space Name
  Outdoors,                               !- Outside Boundary Condition
  ,                                       !- Outside Boundary Condition Object
  SunExposed,                             !- Sun Exposure
  WindExposed,                            !- Wind Exposure
  ,                                       !- View Factor to Ground
  ,                                       !- Number of Vertices
  12.4841555543016, -3.6576, 2.4384,      !- X,Y,Z Vertex 1 {m}
  12.4841555543016, -3.6576, 0,           !- X,Y,Z Vertex 2 {m}
  12.4841555543016, 3.6576, 0,            !- X,Y,Z Vertex 3 {m}
  12.4841555543016, 3.6576, 2.4384;       !- X,Y,Z Vertex 4 {m}

OS:Surface,
  {61586a8a-9e24-4f4f-8ab0-fd0e10226b5d}, !- Handle
  Surface 5,                              !- Name
  Wall,                                   !- Surface Type
  ,                                       !- Construction Name
  {cdb758ac-98d8-4778-a8b6-c4f4a0678557}, !- Space Name
  Outdoors,                               !- Outside Boundary Condition
  ,                                       !- Outside Boundary Condition Object
  SunExposed,                             !- Sun Exposure
  WindExposed,                            !- Wind Exposure
  ,                                       !- View Factor to Ground
  ,                                       !- Number of Vertices
  1.51135555430162, -3.6576, 2.4384,      !- X,Y,Z Vertex 1 {m}
  1.51135555430162, -3.6576, 0,           !- X,Y,Z Vertex 2 {m}
  12.4841555543016, -3.6576, 0,           !- X,Y,Z Vertex 3 {m}
  12.4841555543016, -3.6576, 2.4384;      !- X,Y,Z Vertex 4 {m}

OS:Surface,
  {18682cd3-ba5a-4239-8214-b95c398634f3}, !- Handle
  Surface 6,                              !- Name
  RoofCeiling,                            !- Surface Type
  ,                                       !- Construction Name
  {cdb758ac-98d8-4778-a8b6-c4f4a0678557}, !- Space Name
  Surface,                                !- Outside Boundary Condition
  {7aea5291-dc54-469c-a75b-46e027e8b42f}, !- Outside Boundary Condition Object
  NoSun,                                  !- Sun Exposure
  NoWind,                                 !- Wind Exposure
  ,                                       !- View Factor to Ground
  ,                                       !- Number of Vertices
  12.4841555543016, 0, 2.4384,            !- X,Y,Z Vertex 1 {m}
  12.4841555543016, 3.6576, 2.4384,       !- X,Y,Z Vertex 2 {m}
  1.51135555430162, 3.6576, 2.4384,       !- X,Y,Z Vertex 3 {m}
  1.51135555430162, 0, 2.4384;            !- X,Y,Z Vertex 4 {m}

OS:SpaceType,
  {bae63fb9-370c-41d9-91e0-a89557ae6f71}, !- Handle
  Space Type 1,                           !- Name
  ,                                       !- Default Construction Set Name
  ,                                       !- Default Schedule Set Name
  ,                                       !- Group Rendering Name
  ,                                       !- Design Specification Outdoor Air Object Name
  ,                                       !- Standards Building Type
  garage;                                 !- Standards Space Type

OS:Space,
  {3047f89d-459a-4343-8bef-541860ba7ae8}, !- Handle
  living space,                           !- Name
  {951efdd7-ea1a-402a-884a-9c150ad378b1}, !- Space Type Name
  ,                                       !- Default Construction Set Name
  ,                                       !- Default Schedule Set Name
  -0,                                     !- Direction of Relative North {deg}
  0,                                      !- X Origin {m}
  0,                                      !- Y Origin {m}
  0,                                      !- Z Origin {m}
  ,                                       !- Building Story Name
  {54e260d0-885f-4764-9c8d-b27283a5a889}, !- Thermal Zone Name
  ,                                       !- Part of Total Floor Area
  ,                                       !- Design Specification Outdoor Air Object Name
  {bb185f65-ba5a-487b-8590-f8d1a6ed08ca}; !- Building Unit Name

OS:Surface,
  {3b0c92eb-62e8-4ce3-bceb-36fef41fb8e6}, !- Handle
  Surface 7,                              !- Name
  Floor,                                  !- Surface Type
  ,                                       !- Construction Name
  {3047f89d-459a-4343-8bef-541860ba7ae8}, !- Space Name
  Surface,                                !- Outside Boundary Condition
  {94d53525-531f-41a7-9d8d-9e3269bf993f}, !- Outside Boundary Condition Object
  NoSun,                                  !- Sun Exposure
  NoWind,                                 !- Wind Exposure
  ,                                       !- View Factor to Ground
  ,                                       !- Number of Vertices
  0, 0, 0,                                !- X,Y,Z Vertex 1 {m}
  0, 6.93564197461201, 0,                 !- X,Y,Z Vertex 2 {m}
  12.4841555543016, 6.93564197461201, 0,  !- X,Y,Z Vertex 3 {m}
  12.4841555543016, 3.6576, 0,            !- X,Y,Z Vertex 4 {m}
  1.51135555430162, 3.6576, 0,            !- X,Y,Z Vertex 5 {m}
  1.51135555430162, 0, 0;                 !- X,Y,Z Vertex 6 {m}

OS:Surface,
  {598d5445-3c4a-4017-ba31-edeb3b1f6e30}, !- Handle
  Surface 8,                              !- Name
  Wall,                                   !- Surface Type
  ,                                       !- Construction Name
  {3047f89d-459a-4343-8bef-541860ba7ae8}, !- Space Name
  Outdoors,                               !- Outside Boundary Condition
  ,                                       !- Outside Boundary Condition Object
  SunExposed,                             !- Sun Exposure
  WindExposed,                            !- Wind Exposure
  ,                                       !- View Factor to Ground
  ,                                       !- Number of Vertices
  0, 6.93564197461201, 2.4384,            !- X,Y,Z Vertex 1 {m}
  0, 6.93564197461201, 0,                 !- X,Y,Z Vertex 2 {m}
  0, 0, 0,                                !- X,Y,Z Vertex 3 {m}
  0, 0, 2.4384;                           !- X,Y,Z Vertex 4 {m}

OS:Surface,
  {2dbe0370-69d7-4b60-a7a3-974a5ab0b592}, !- Handle
  Surface 9,                              !- Name
  Wall,                                   !- Surface Type
  ,                                       !- Construction Name
  {3047f89d-459a-4343-8bef-541860ba7ae8}, !- Space Name
  Outdoors,                               !- Outside Boundary Condition
  ,                                       !- Outside Boundary Condition Object
  SunExposed,                             !- Sun Exposure
  WindExposed,                            !- Wind Exposure
  ,                                       !- View Factor to Ground
  ,                                       !- Number of Vertices
  12.4841555543016, 6.93564197461201, 2.4384, !- X,Y,Z Vertex 1 {m}
  12.4841555543016, 6.93564197461201, 0,  !- X,Y,Z Vertex 2 {m}
  0, 6.93564197461201, 0,                 !- X,Y,Z Vertex 3 {m}
  0, 6.93564197461201, 2.4384;            !- X,Y,Z Vertex 4 {m}

OS:Surface,
  {b43d4b8d-3c96-46d2-a958-b1d58bfb4f83}, !- Handle
  Surface 10,                             !- Name
  Wall,                                   !- Surface Type
  ,                                       !- Construction Name
  {3047f89d-459a-4343-8bef-541860ba7ae8}, !- Space Name
  Outdoors,                               !- Outside Boundary Condition
  ,                                       !- Outside Boundary Condition Object
  SunExposed,                             !- Sun Exposure
  WindExposed,                            !- Wind Exposure
  ,                                       !- View Factor to Ground
  ,                                       !- Number of Vertices
  12.4841555543016, 3.6576, 2.4384,       !- X,Y,Z Vertex 1 {m}
  12.4841555543016, 3.6576, 0,            !- X,Y,Z Vertex 2 {m}
  12.4841555543016, 6.93564197461201, 0,  !- X,Y,Z Vertex 3 {m}
  12.4841555543016, 6.93564197461201, 2.4384; !- X,Y,Z Vertex 4 {m}

OS:Surface,
  {b7a96c02-b2fc-41b4-9935-d6137f01d962}, !- Handle
  Surface 11,                             !- Name
  Wall,                                   !- Surface Type
  ,                                       !- Construction Name
  {3047f89d-459a-4343-8bef-541860ba7ae8}, !- Space Name
  Surface,                                !- Outside Boundary Condition
  {fa2f9280-9eb1-40d1-a9ae-6d13486af463}, !- Outside Boundary Condition Object
  NoSun,                                  !- Sun Exposure
  NoWind,                                 !- Wind Exposure
  ,                                       !- View Factor to Ground
  ,                                       !- Number of Vertices
  1.51135555430162, 3.6576, 2.4384,       !- X,Y,Z Vertex 1 {m}
  1.51135555430162, 3.6576, 0,            !- X,Y,Z Vertex 2 {m}
  12.4841555543016, 3.6576, 0,            !- X,Y,Z Vertex 3 {m}
  12.4841555543016, 3.6576, 2.4384;       !- X,Y,Z Vertex 4 {m}

OS:Surface,
  {d0379567-36c0-4a68-a660-78a7fa25ccd8}, !- Handle
  Surface 12,                             !- Name
  Wall,                                   !- Surface Type
  ,                                       !- Construction Name
  {3047f89d-459a-4343-8bef-541860ba7ae8}, !- Space Name
  Surface,                                !- Outside Boundary Condition
  {5aa73647-bf72-4730-9134-b0e3fbc3e193}, !- Outside Boundary Condition Object
  NoSun,                                  !- Sun Exposure
  NoWind,                                 !- Wind Exposure
  ,                                       !- View Factor to Ground
  ,                                       !- Number of Vertices
  1.51135555430162, 0, 2.4384,            !- X,Y,Z Vertex 1 {m}
  1.51135555430162, 0, 0,                 !- X,Y,Z Vertex 2 {m}
  1.51135555430162, 3.6576, 0,            !- X,Y,Z Vertex 3 {m}
  1.51135555430162, 3.6576, 2.4384;       !- X,Y,Z Vertex 4 {m}

OS:Surface,
  {8b58589b-0c4e-4991-8b66-6a81813757a7}, !- Handle
  Surface 13,                             !- Name
  Wall,                                   !- Surface Type
  ,                                       !- Construction Name
  {3047f89d-459a-4343-8bef-541860ba7ae8}, !- Space Name
  Outdoors,                               !- Outside Boundary Condition
  ,                                       !- Outside Boundary Condition Object
  SunExposed,                             !- Sun Exposure
  WindExposed,                            !- Wind Exposure
  ,                                       !- View Factor to Ground
  ,                                       !- Number of Vertices
  0, 0, 2.4384,                           !- X,Y,Z Vertex 1 {m}
  0, 0, 0,                                !- X,Y,Z Vertex 2 {m}
  1.51135555430162, 0, 0,                 !- X,Y,Z Vertex 3 {m}
  1.51135555430162, 0, 2.4384;            !- X,Y,Z Vertex 4 {m}

OS:Surface,
  {38dad893-4d15-4fbf-95c2-383df5550f72}, !- Handle
  Surface 14,                             !- Name
  RoofCeiling,                            !- Surface Type
  ,                                       !- Construction Name
  {3047f89d-459a-4343-8bef-541860ba7ae8}, !- Space Name
  Surface,                                !- Outside Boundary Condition
  {c78d6286-91b6-43d1-8cf9-fa9c6dbdbc57}, !- Outside Boundary Condition Object
  NoSun,                                  !- Sun Exposure
  NoWind,                                 !- Wind Exposure
  ,                                       !- View Factor to Ground
  ,                                       !- Number of Vertices