!- NOTE: Auto-generated from /test/osw_files/SFA_4units_1story_FB_UA_Denver.osw

OS:Version,
  {60fde122-fa91-434f-9990-9be0051abaa0}, !- Handle
  2.6.0;                                  !- Version Identifier

OS:Building,
  {b8fd53f3-8c60-427f-9ac2-f57c65f0eebb}, !- Handle
  Building 1,                             !- Name
  ,                                       !- Building Sector Type
  0,                                      !- North Axis {deg}
  ,                                       !- Nominal Floor to Floor Height {m}
  ,                                       !- Space Type Name
  ,                                       !- Default Construction Set Name
  ,                                       !- Default Schedule Set Name
  2,                                      !- Standards Number of Stories
  1,                                      !- Standards Number of Above Ground Stories
  singlefamilyattached,                   !- Standards Building Type
  4;                                      !- Standards Number of Living Units

OS:Facility,
  {40901a3e-de1b-4bd1-a080-4c5ec1aeae43}; !- Handle

OS:Site,
  {465a5034-9130-4711-b3e7-7e5cb1ac0bea}, !- Handle
  Denver Intl Ap_CO_USA,                  !- Name
  39.83,                                  !- Latitude {deg}
  -104.65,                                !- Longitude {deg}
  -7,                                     !- Time Zone {hr}
  1650,                                   !- Elevation {m}
  ;                                       !- Terrain

OS:SimulationControl,
  {d7ccba68-fa66-4179-ab75-40a6500b5971}, !- Handle
  ,                                       !- Do Zone Sizing Calculation
  ,                                       !- Do System Sizing Calculation
  ,                                       !- Do Plant Sizing Calculation
  No;                                     !- Run Simulation for Sizing Periods

OS:Sizing:Parameters,
  {6886ccc1-ae9e-4a57-8b6a-3e61fc165593}, !- Handle
  1.25,                                   !- Heating Sizing Factor
  1.15;                                   !- Cooling Sizing Factor

OS:Timestep,
  {8b847d3b-9dd0-4f41-9012-d6d27307bdd6}, !- Handle
  6;                                      !- Number of Timesteps per Hour

OS:ShadowCalculation,
  {d4271d13-be09-4551-9fe3-991e0885b1df}, !- Handle
  20,                                     !- Calculation Frequency
  200;                                    !- Maximum Figures in Shadow Overlap Calculations

OS:HeatBalanceAlgorithm,
  {1fde9649-6cd6-47cc-88a1-db4291e44a38}, !- Handle
  ConductionTransferFunction,             !- Algorithm
  200;                                    !- Surface Temperature Upper Limit {C}

OS:RunPeriod,
  {d2e9873d-248f-42c1-b2e6-056fc6cb14a0}, !- Handle
  Run Period 1,                           !- Name
  1,                                      !- Begin Month
  1,                                      !- Begin Day of Month
  12,                                     !- End Month
  31,                                     !- End Day of Month
  ,                                       !- Use Weather File Holidays and Special Days
  ,                                       !- Use Weather File Daylight Saving Period
  ,                                       !- Apply Weekend Holiday Rule
  ,                                       !- Use Weather File Rain Indicators
  ,                                       !- Use Weather File Snow Indicators
  ;                                       !- Number of Times Runperiod to be Repeated

OS:LifeCycleCost:Parameters,
  {f3fea461-43d3-4a57-b022-4cda4abb8e14}, !- Handle
  ,                                       !- Analysis Type
  ,                                       !- Discounting Convention
  ,                                       !- Inflation Approach
  ,                                       !- Real Discount Rate
  ,                                       !- Nominal Discount Rate
  ,                                       !- Inflation
  ,                                       !- Base Date Month
  ,                                       !- Base Date Year
  ,                                       !- Service Date Month
  ,                                       !- Service Date Year
  ;                                       !- Length of Study Period in Years

OS:ThermalZone,
  {305e3cd1-1fce-4146-87e3-9cedc8cac915}, !- Handle
  living zone,                            !- Name
  ,                                       !- Multiplier
  ,                                       !- Ceiling Height {m}
  ,                                       !- Volume {m3}
  ,                                       !- Floor Area {m2}
  ,                                       !- Zone Inside Convection Algorithm
  ,                                       !- Zone Outside Convection Algorithm
  ,                                       !- Zone Conditioning Equipment List Name
  {ce73a313-66a7-4818-a40e-b5b6329abf9e}, !- Zone Air Inlet Port List
  {9463bed6-5257-444a-ac41-d1c62ea05612}, !- Zone Air Exhaust Port List
  {01d88d27-c117-449b-965c-51c3bfdb0bdd}, !- Zone Air Node Name
  ,                                       !- Zone Return Air Node Name
  ,                                       !- Primary Daylighting Control Name
  ,                                       !- Fraction of Zone Controlled by Primary Daylighting Control
  ,                                       !- Secondary Daylighting Control Name
  ,                                       !- Fraction of Zone Controlled by Secondary Daylighting Control
  ,                                       !- Illuminance Map Name
  ,                                       !- Group Rendering Name
  ,                                       !- Thermostat Name
  No;                                     !- Use Ideal Air Loads

OS:Node,
  {0a4b8e40-7d58-498f-a7ce-a5d4985b4b37}, !- Handle
  Node 1,                                 !- Name
  {01d88d27-c117-449b-965c-51c3bfdb0bdd}, !- Inlet Port
  ;                                       !- Outlet Port

OS:Connection,
  {01d88d27-c117-449b-965c-51c3bfdb0bdd}, !- Handle
  {24e2979c-284e-4bc3-9ebc-74cb89cb457b}, !- Name
  {305e3cd1-1fce-4146-87e3-9cedc8cac915}, !- Source Object
  11,                                     !- Outlet Port
  {0a4b8e40-7d58-498f-a7ce-a5d4985b4b37}, !- Target Object
  2;                                      !- Inlet Port

OS:PortList,
  {ce73a313-66a7-4818-a40e-b5b6329abf9e}, !- Handle
  {787ccb5b-c301-45b0-8e3a-0cfdfeae90c8}, !- Name
  {305e3cd1-1fce-4146-87e3-9cedc8cac915}; !- HVAC Component

OS:PortList,
  {9463bed6-5257-444a-ac41-d1c62ea05612}, !- Handle
  {c5d7731e-a373-4941-ad99-f33af02eed63}, !- Name
  {305e3cd1-1fce-4146-87e3-9cedc8cac915}; !- HVAC Component

OS:Sizing:Zone,
  {9f38a57f-dd64-47e0-b8c3-27439b710a1f}, !- Handle
  {305e3cd1-1fce-4146-87e3-9cedc8cac915}, !- Zone or ZoneList Name
  SupplyAirTemperature,                   !- Zone Cooling Design Supply Air Temperature Input Method
  14,                                     !- Zone Cooling Design Supply Air Temperature {C}
  11.11,                                  !- Zone Cooling Design Supply Air Temperature Difference {deltaC}
  SupplyAirTemperature,                   !- Zone Heating Design Supply Air Temperature Input Method
  40,                                     !- Zone Heating Design Supply Air Temperature {C}
  11.11,                                  !- Zone Heating Design Supply Air Temperature Difference {deltaC}
  0.0085,                                 !- Zone Cooling Design Supply Air Humidity Ratio {kg-H2O/kg-air}
  0.008,                                  !- Zone Heating Design Supply Air Humidity Ratio {kg-H2O/kg-air}
  ,                                       !- Zone Heating Sizing Factor
  ,                                       !- Zone Cooling Sizing Factor
  DesignDay,                              !- Cooling Design Air Flow Method
  ,                                       !- Cooling Design Air Flow Rate {m3/s}
  ,                                       !- Cooling Minimum Air Flow per Zone Floor Area {m3/s-m2}
  ,                                       !- Cooling Minimum Air Flow {m3/s}
  ,                                       !- Cooling Minimum Air Flow Fraction
  DesignDay,                              !- Heating Design Air Flow Method
  ,                                       !- Heating Design Air Flow Rate {m3/s}
  ,                                       !- Heating Maximum Air Flow per Zone Floor Area {m3/s-m2}
  ,                                       !- Heating Maximum Air Flow {m3/s}
  ,                                       !- Heating Maximum Air Flow Fraction
  ,                                       !- Design Zone Air Distribution Effectiveness in Cooling Mode
  ,                                       !- Design Zone Air Distribution Effectiveness in Heating Mode
  No,                                     !- Account for Dedicated Outdoor Air System
  NeutralSupplyAir,                       !- Dedicated Outdoor Air System Control Strategy
  autosize,                               !- Dedicated Outdoor Air Low Setpoint Temperature for Design {C}
  autosize;                               !- Dedicated Outdoor Air High Setpoint Temperature for Design {C}

OS:ZoneHVAC:EquipmentList,
  {b03a44be-31bd-4e72-b380-3fdbc16e8d1e}, !- Handle
  Zone HVAC Equipment List 1,             !- Name
  {305e3cd1-1fce-4146-87e3-9cedc8cac915}; !- Thermal Zone

OS:Space,
  {9ffdce76-e90b-4287-afce-619f1cb618b3}, !- Handle
  living space,                           !- Name
  {50109f40-c2c4-4dff-a803-608cef8bb828}, !- Space Type Name
  ,                                       !- Default Construction Set Name
  ,                                       !- Default Schedule Set Name
  ,                                       !- Direction of Relative North {deg}
  ,                                       !- X Origin {m}
  ,                                       !- Y Origin {m}
  ,                                       !- Z Origin {m}
  ,                                       !- Building Story Name
  {305e3cd1-1fce-4146-87e3-9cedc8cac915}, !- Thermal Zone Name
  ,                                       !- Part of Total Floor Area
  ,                                       !- Design Specification Outdoor Air Object Name
  {eaf673e1-9dbc-4060-8d21-0847ffbbcb6b}; !- Building Unit Name

OS:Surface,
  {0d7e6d65-5b10-49c6-adf2-00728616ea8f}, !- Handle
  Surface 1,                              !- Name
  Floor,                                  !- Surface Type
  ,                                       !- Construction Name
  {9ffdce76-e90b-4287-afce-619f1cb618b3}, !- Space Name
  Surface,                                !- Outside Boundary Condition
  {17ce93eb-eff8-4ac5-aacd-cf683a46ab5f}, !- Outside Boundary Condition Object
  NoSun,                                  !- Sun Exposure
  NoWind,                                 !- Wind Exposure
  ,                                       !- View Factor to Ground
  ,                                       !- Number of Vertices
  0, -9.144, 0,                           !- X,Y,Z Vertex 1 {m}
  0, 0, 0,                                !- X,Y,Z Vertex 2 {m}
  4.572, 0, 0,                            !- X,Y,Z Vertex 3 {m}
  4.572, -9.144, 0;                       !- X,Y,Z Vertex 4 {m}

OS:Surface,
  {fbd38ee7-ca61-4a27-99c5-1853c11cf786}, !- Handle
  Surface 2,                              !- Name
  Wall,                                   !- Surface Type
  ,                                       !- Construction Name
  {9ffdce76-e90b-4287-afce-619f1cb618b3}, !- Space Name
  Outdoors,                               !- Outside Boundary Condition
  ,                                       !- Outside Boundary Condition Object
  SunExposed,                             !- Sun Exposure
  WindExposed,                            !- Wind Exposure
  ,                                       !- View Factor to Ground
  ,                                       !- Number of Vertices
  0, 0, 2.4384,                           !- X,Y,Z Vertex 1 {m}
  0, 0, 0,                                !- X,Y,Z Vertex 2 {m}
  0, -9.144, 0,                           !- X,Y,Z Vertex 3 {m}
  0, -9.144, 2.4384;                      !- X,Y,Z Vertex 4 {m}

OS:Surface,
  {706ad86a-4d73-4547-91b9-b5c49fe1739c}, !- Handle
  Surface 3,                              !- Name
  Wall,                                   !- Surface Type
  ,                                       !- Construction Name
  {9ffdce76-e90b-4287-afce-619f1cb618b3}, !- Space Name
  Outdoors,                               !- Outside Boundary Condition
  ,                                       !- Outside Boundary Condition Object
  SunExposed,                             !- Sun Exposure
  WindExposed,                            !- Wind Exposure
  ,                                       !- View Factor to Ground
  ,                                       !- Number of Vertices
  4.572, 0, 2.4384,                       !- X,Y,Z Vertex 1 {m}
  4.572, 0, 0,                            !- X,Y,Z Vertex 2 {m}
  0, 0, 0,                                !- X,Y,Z Vertex 3 {m}
  0, 0, 2.4384;                           !- X,Y,Z Vertex 4 {m}

OS:Surface,
  {4e9592b1-4aee-4a23-ab4c-8b4b80f68ed2}, !- Handle
  Surface 4,                              !- Name
  Wall,                                   !- Surface Type
  ,                                       !- Construction Name
  {9ffdce76-e90b-4287-afce-619f1cb618b3}, !- Space Name
  Surface,                                !- Outside Boundary Condition
  {2467f462-5abf-4143-8bc4-83a718fa3764}, !- Outside Boundary Condition Object
  NoSun,                                  !- Sun Exposure
  NoWind,                                 !- Wind Exposure
  ,                                       !- View Factor to Ground
  ,                                       !- Number of Vertices
  4.572, -9.144, 2.4384,                  !- X,Y,Z Vertex 1 {m}
  4.572, -9.144, 0,                       !- X,Y,Z Vertex 2 {m}
  4.572, 0, 0,                            !- X,Y,Z Vertex 3 {m}
  4.572, 0, 2.4384;                       !- X,Y,Z Vertex 4 {m}

OS:Surface,
  {87f9d998-4b3e-40ea-874d-307eb540256d}, !- Handle
  Surface 5,                              !- Name
  Wall,                                   !- Surface Type
  ,                                       !- Construction Name
  {9ffdce76-e90b-4287-afce-619f1cb618b3}, !- Space Name
  Outdoors,                               !- Outside Boundary Condition
  ,                                       !- Outside Boundary Condition Object
  SunExposed,                             !- Sun Exposure
  WindExposed,                            !- Wind Exposure
  ,                                       !- View Factor to Ground
  ,                                       !- Number of Vertices
  0, -9.144, 2.4384,                      !- X,Y,Z Vertex 1 {m}
  0, -9.144, 0,                           !- X,Y,Z Vertex 2 {m}
  4.572, -9.144, 0,                       !- X,Y,Z Vertex 3 {m}
  4.572, -9.144, 2.4384;                  !- X,Y,Z Vertex 4 {m}

OS:Surface,
  {6ce42cb1-7f1a-433e-badd-1936ead429f4}, !- Handle
  Surface 6,                              !- Name
  RoofCeiling,                            !- Surface Type
  ,                                       !- Construction Name
  {9ffdce76-e90b-4287-afce-619f1cb618b3}, !- Space Name
  Surface,                                !- Outside Boundary Condition
  {abdf5873-82ef-4468-b1a9-c2a2ef889d25}, !- Outside Boundary Condition Object
  NoSun,                                  !- Sun Exposure
  NoWind,                                 !- Wind Exposure
  ,                                       !- View Factor to Ground
  ,                                       !- Number of Vertices
  4.572, -9.144, 2.4384,                  !- X,Y,Z Vertex 1 {m}
  4.572, 0, 2.4384,                       !- X,Y,Z Vertex 2 {m}
  0, 0, 2.4384,                           !- X,Y,Z Vertex 3 {m}
  0, -9.144, 2.4384;                      !- X,Y,Z Vertex 4 {m}

OS:SpaceType,
  {50109f40-c2c4-4dff-a803-608cef8bb828}, !- Handle
  Space Type 1,                           !- Name
  ,                                       !- Default Construction Set Name
  ,                                       !- Default Schedule Set Name
  ,                                       !- Group Rendering Name
  ,                                       !- Design Specification Outdoor Air Object Name
  ,                                       !- Standards Building Type
  living;                                 !- Standards Space Type

OS:ThermalZone,
  {c06ccf33-a097-482c-9cb6-652d5d41294c}, !- Handle
  living zone|unit 2,                     !- Name
  ,                                       !- Multiplier
  ,                                       !- Ceiling Height {m}
  ,                                       !- Volume {m3}
  ,                                       !- Floor Area {m2}
  ,                                       !- Zone Inside Convection Algorithm
  ,                                       !- Zone Outside Convection Algorithm
  ,                                       !- Zone Conditioning Equipment List Name
  {c2a4a422-627e-4872-a14c-70b671f3f8b3}, !- Zone Air Inlet Port List
  {29c3eb2d-ee1c-454e-82b2-e50bcdabea8b}, !- Zone Air Exhaust Port List
  {603efec1-f641-4eb9-a48a-1340e0d4abac}, !- Zone Air Node Name
  ,                                       !- Zone Return Air Node Name
  ,                                       !- Primary Daylighting Control Name
  ,                                       !- Fraction of Zone Controlled by Primary Daylighting Control
  ,                                       !- Secondary Daylighting Control Name
  ,                                       !- Fraction of Zone Controlled by Secondary Daylighting Control
  ,                                       !- Illuminance Map Name
  ,                                       !- Group Rendering Name
  ,                                       !- Thermostat Name
  No;                                     !- Use Ideal Air Loads

OS:Node,
  {d1b7d8e0-62d9-4586-94c4-f53f04aff006}, !- Handle
  Node 2,                                 !- Name
  {603efec1-f641-4eb9-a48a-1340e0d4abac}, !- Inlet Port
  ;                                       !- Outlet Port

OS:Connection,
  {603efec1-f641-4eb9-a48a-1340e0d4abac}, !- Handle
  {2d1c137b-7225-4e3a-a946-a1d5fdbe3909}, !- Name
  {c06ccf33-a097-482c-9cb6-652d5d41294c}, !- Source Object
  11,                                     !- Outlet Port
  {d1b7d8e0-62d9-4586-94c4-f53f04aff006}, !- Target Object
  2;                                      !- Inlet Port

OS:PortList,
  {c2a4a422-627e-4872-a14c-70b671f3f8b3}, !- Handle
  {36f2d633-d69b-423e-b9b1-990145c16c04}, !- Name
  {c06ccf33-a097-482c-9cb6-652d5d41294c}; !- HVAC Component

OS:PortList,
  {29c3eb2d-ee1c-454e-82b2-e50bcdabea8b}, !- Handle
  {7df27c71-e888-445a-b2ea-a550e68040e7}, !- Name
  {c06ccf33-a097-482c-9cb6-652d5d41294c}; !- HVAC Component

OS:Sizing:Zone,
  {6f4afa7c-d7be-4fb1-b08f-b50dc465f99e}, !- Handle
  {c06ccf33-a097-482c-9cb6-652d5d41294c}, !- Zone or ZoneList Name
  SupplyAirTemperature,                   !- Zone Cooling Design Supply Air Temperature Input Method
  14,                                     !- Zone Cooling Design Supply Air Temperature {C}
  11.11,                                  !- Zone Cooling Design Supply Air Temperature Difference {deltaC}
  SupplyAirTemperature,                   !- Zone Heating Design Supply Air Temperature Input Method
  40,                                     !- Zone Heating Design Supply Air Temperature {C}
  11.11,                                  !- Zone Heating Design Supply Air Temperature Difference {deltaC}
  0.0085,                                 !- Zone Cooling Design Supply Air Humidity Ratio {kg-H2O/kg-air}
  0.008,                                  !- Zone Heating Design Supply Air Humidity Ratio {kg-H2O/kg-air}
  ,                                       !- Zone Heating Sizing Factor
  ,                                       !- Zone Cooling Sizing Factor
  DesignDay,                              !- Cooling Design Air Flow Method
  ,                                       !- Cooling Design Air Flow Rate {m3/s}
  ,                                       !- Cooling Minimum Air Flow per Zone Floor Area {m3/s-m2}
  ,                                       !- Cooling Minimum Air Flow {m3/s}
  ,                                       !- Cooling Minimum Air Flow Fraction
  DesignDay,                              !- Heating Design Air Flow Method
  ,                                       !- Heating Design Air Flow Rate {m3/s}
  ,                                       !- Heating Maximum Air Flow per Zone Floor Area {m3/s-m2}
  ,                                       !- Heating Maximum Air Flow {m3/s}
  ,                                       !- Heating Maximum Air Flow Fraction
  ,                                       !- Design Zone Air Distribution Effectiveness in Cooling Mode
  ,                                       !- Design Zone Air Distribution Effectiveness in Heating Mode
  No,                                     !- Account for Dedicated Outdoor Air System
  NeutralSupplyAir,                       !- Dedicated Outdoor Air System Control Strategy
  autosize,                               !- Dedicated Outdoor Air Low Setpoint Temperature for Design {C}
  autosize;                               !- Dedicated Outdoor Air High Setpoint Temperature for Design {C}

OS:ZoneHVAC:EquipmentList,
  {868e7d7f-fd49-48bf-9e55-073bc7563d88}, !- Handle
  Zone HVAC Equipment List 2,             !- Name
  {c06ccf33-a097-482c-9cb6-652d5d41294c}; !- Thermal Zone

OS:Space,
  {8500b517-15a7-4916-bca7-511b7b44cbe3}, !- Handle
  living space|unit 2|story 1,            !- Name
  {50109f40-c2c4-4dff-a803-608cef8bb828}, !- Space Type Name
  ,                                       !- Default Construction Set Name
  ,                                       !- Default Schedule Set Name
  -0,                                     !- Direction of Relative North {deg}
  0,                                      !- X Origin {m}
  0,                                      !- Y Origin {m}
  0,                                      !- Z Origin {m}
  ,                                       !- Building Story Name
  {c06ccf33-a097-482c-9cb6-652d5d41294c}, !- Thermal Zone Name
  ,                                       !- Part of Total Floor Area
  ,                                       !- Design Specification Outdoor Air Object Name
  {8d038c17-344e-41f7-8944-da360196392c}; !- Building Unit Name

OS:Surface,
  {ba211248-169e-4164-bd0c-29ad17d75820}, !- Handle
  Surface 12,                             !- Name
  Floor,                                  !- Surface Type
  ,                                       !- Construction Name
  {8500b517-15a7-4916-bca7-511b7b44cbe3}, !- Space Name
  Surface,                                !- Outside Boundary Condition
  {134b3527-dcca-463b-a218-9bc8f4081b5f}, !- Outside Boundary Condition Object
  NoSun,                                  !- Sun Exposure
  NoWind,                                 !- Wind Exposure
  ,                                       !- View Factor to Ground
  ,                                       !- Number of Vertices
  4.572, -9.144, 0,                       !- X,Y,Z Vertex 1 {m}
  4.572, 0, 0,                            !- X,Y,Z Vertex 2 {m}
  9.144, 0, 0,                            !- X,Y,Z Vertex 3 {m}
  9.144, -9.144, 0;                       !- X,Y,Z Vertex 4 {m}

OS:Surface,
  {b6fc3e38-f2ae-4ff3-83b2-060e7cdff41d}, !- Handle
  Surface 13,                             !- Name
  Wall,                                   !- Surface Type
  ,                                       !- Construction Name
  {8500b517-15a7-4916-bca7-511b7b44cbe3}, !- Space Name
  Outdoors,                               !- Outside Boundary Condition
  ,                                       !- Outside Boundary Condition Object
  SunExposed,                             !- Sun Exposure
  WindExposed,                            !- Wind Exposure
  ,                                       !- View Factor to Ground
  ,                                       !- Number of Vertices
  9.144, 0, 2.4384,                       !- X,Y,Z Vertex 1 {m}
  9.144, 0, 0,                            !- X,Y,Z Vertex 2 {m}
  4.572, 0, 0,                            !- X,Y,Z Vertex 3 {m}
  4.572, 0, 2.4384;                       !- X,Y,Z Vertex 4 {m}

OS:Surface,
  {f6cc6369-c97d-45a9-849d-a0c9a3b2d1eb}, !- Handle
  Surface 14,                             !- Name
  Wall,                                   !- Surface Type
  ,                                       !- Construction Name
  {8500b517-15a7-4916-bca7-511b7b44cbe3}, !- Space Name
  Surface,                                !- Outside Boundary Condition
  {3838d5a5-b50e-421e-99a8-4cb7a17428ad}, !- Outside Boundary Condition Object
  NoSun,                                  !- Sun Exposure
  NoWind,                                 !- Wind Exposure
  ,                                       !- View Factor to Ground
  ,                                       !- Number of Vertices
  9.144, -9.144, 2.4384,                  !- X,Y,Z Vertex 1 {m}
  9.144, -9.144, 0,                       !- X,Y,Z Vertex 2 {m}
  9.144, 0, 0,                            !- X,Y,Z Vertex 3 {m}
  9.144, 0, 2.4384;                       !- X,Y,Z Vertex 4 {m}

OS:Surface,
  {2467f462-5abf-4143-8bc4-83a718fa3764}, !- Handle
  Surface 15,                             !- Name
  Wall,                                   !- Surface Type
  ,                                       !- Construction Name
  {8500b517-15a7-4916-bca7-511b7b44cbe3}, !- Space Name
  Surface,                                !- Outside Boundary Condition
  {4e9592b1-4aee-4a23-ab4c-8b4b80f68ed2}, !- Outside Boundary Condition Object
  NoSun,                                  !- Sun Exposure
  NoWind,                                 !- Wind Exposure
  ,                                       !- View Factor to Ground
  ,                                       !- Number of Vertices
  4.572, 0, 2.4384,                       !- X,Y,Z Vertex 1 {m}
  4.572, 0, 0,                            !- X,Y,Z Vertex 2 {m}
  4.572, -9.144, 0,                       !- X,Y,Z Vertex 3 {m}
  4.572, -9.144, 2.4384;                  !- X,Y,Z Vertex 4 {m}

OS:Surface,
  {2f057375-541b-48ab-bd9f-3474ad58c7ac}, !- Handle
  Surface 16,                             !- Name
  RoofCeiling,                            !- Surface Type
  ,                                       !- Construction Name
  {8500b517-15a7-4916-bca7-511b7b44cbe3}, !- Space Name
  Surface,                                !- Outside Boundary Condition
  {7ca2bd2c-6771-4810-8a01-2fa4d6996485}, !- Outside Boundary Condition Object
  NoSun,                                  !- Sun Exposure
  NoWind,                                 !- Wind Exposure
  ,                                       !- View Factor to Ground
  ,                                       !- Number of Vertices
  9.144, -9.144, 2.4384,                  !- X,Y,Z Vertex 1 {m}
  9.144, 0, 2.4384,                       !- X,Y,Z Vertex 2 {m}
  4.572, 0, 2.4384,                       !- X,Y,Z Vertex 3 {m}
  4.572, -9.144, 2.4384;                  !- X,Y,Z Vertex 4 {m}

OS:Surface,
  {f9b91947-95ac-498a-8465-5f2009b857ac}, !- Handle
  Surface 17,                             !- Name
  Wall,                                   !- Surface Type
  ,                                       !- Construction Name
  {8500b517-15a7-4916-bca7-511b7b44cbe3}, !- Space Name
  Outdoors,                               !- Outside Boundary Condition
  ,                                       !- Outside Boundary Condition Object
  SunExposed,                             !- Sun Exposure
  WindExposed,                            !- Wind Exposure
  ,                                       !- View Factor to Ground
  ,                                       !- Number of Vertices
  4.572, -9.144, 2.4384,                  !- X,Y,Z Vertex 1 {m}
  4.572, -9.144, 0,                       !- X,Y,Z Vertex 2 {m}
  9.144, -9.144, 0,                       !- X,Y,Z Vertex 3 {m}
  9.144, -9.144, 2.4384;                  !- X,Y,Z Vertex 4 {m}

OS:ThermalZone,
  {3fc9d809-51fa-4981-905a-92c1e162b53d}, !- Handle
  living zone|unit 3,                     !- Name
  ,                                       !- Multiplier
  ,                                       !- Ceiling Height {m}
  ,                                       !- Volume {m3}
  ,                                       !- Floor Area {m2}
  ,                                       !- Zone Inside Convection Algorithm
  ,                                       !- Zone Outside Convection Algorithm
  ,                                       !- Zone Conditioning Equipment List Name
  {c57afd83-4727-412c-b4e2-68030c49872e}, !- Zone Air Inlet Port List
  {69eabf8d-cbfb-4dad-ba72-285b27cac443}, !- Zone Air Exhaust Port List
  {00047bbb-e736-49c2-9588-5836f2794cc8}, !- Zone Air Node Name
  ,                                       !- Zone Return Air Node Name
  ,                                       !- Primary Daylighting Control Name
  ,                                       !- Fraction of Zone Controlled by Primary Daylighting Control
  ,                                       !- Secondary Daylighting Control Name
  ,                                       !- Fraction of Zone Controlled by Secondary Daylighting Control
  ,                                       !- Illuminance Map Name
  ,                                       !- Group Rendering Name
  ,                                       !- Thermostat Name
  No;                                     !- Use Ideal Air Loads

OS:Node,
  {96096ab9-d68f-413c-bd0c-4f0dfca870e2}, !- Handle
  Node 3,                                 !- Name