!- NOTE: Auto-generated from /test/osw_files/SFD_2000sqft_2story_FB_GRG_UA_Denver.osw

OS:Version,
  {b42efc55-85a2-4a5f-bb21-27f0a10057dd}, !- Handle
  2.6.2;                                  !- Version Identifier

OS:Building,
  {ae7591be-2739-4b3a-8d14-7e1f005d7b83}, !- Handle
  Building 1,                             !- Name
  ,                                       !- Building Sector Type
  0,                                      !- North Axis {deg}
  ,                                       !- Nominal Floor to Floor Height {m}
  ,                                       !- Space Type Name
  ,                                       !- Default Construction Set Name
  ,                                       !- Default Schedule Set Name
  3,                                      !- Standards Number of Stories
  2,                                      !- Standards Number of Above Ground Stories
  singlefamilydetached,                   !- Standards Building Type
  1;                                      !- Standards Number of Living Units

OS:Facility,
  {8b1eef58-3d83-4192-8905-ce3bb3665eaf}; !- Handle

OS:Site,
  {3f7286c6-eb4c-4a94-a8ad-141cb2b19fd7}, !- Handle
  Denver Intl Ap_CO_USA,                  !- Name
  39.83,                                  !- Latitude {deg}
  -104.65,                                !- Longitude {deg}
  -7,                                     !- Time Zone {hr}
  1650,                                   !- Elevation {m}
  ;                                       !- Terrain

OS:SimulationControl,
  {39b285b2-eda2-4ab5-8505-3aee50ded794}, !- Handle
  ,                                       !- Do Zone Sizing Calculation
  ,                                       !- Do System Sizing Calculation
  ,                                       !- Do Plant Sizing Calculation
  No;                                     !- Run Simulation for Sizing Periods

OS:Sizing:Parameters,
  {d025af59-9f54-4ae5-a390-6f97f35b8c02}, !- Handle
  1.25,                                   !- Heating Sizing Factor
  1.15;                                   !- Cooling Sizing Factor

OS:Timestep,
  {9cbbeeb9-e53a-4ea2-bf3f-36f65f7b41f5}, !- Handle
  6;                                      !- Number of Timesteps per Hour

OS:ShadowCalculation,
  {f1b4def8-70f1-41bc-bb16-da444c40d07a}, !- Handle
  20,                                     !- Calculation Frequency
  200;                                    !- Maximum Figures in Shadow Overlap Calculations

OS:HeatBalanceAlgorithm,
  {3ac10381-a421-41f0-8aa1-d9c1cdfc9355}, !- Handle
  ConductionTransferFunction,             !- Algorithm
  200;                                    !- Surface Temperature Upper Limit {C}

OS:RunPeriod,
  {2128b92c-86e7-4dec-aee5-019d49280239}, !- Handle
  Run Period 1,                           !- Name
  1,                                      !- Begin Month
  1,                                      !- Begin Day of Month
  12,                                     !- End Month
  31,                                     !- End Day of Month
  ,                                       !- Use Weather File Holidays and Special Days
  ,                                       !- Use Weather File Daylight Saving Period
  ,                                       !- Apply Weekend Holiday Rule
  ,                                       !- Use Weather File Rain Indicators
  ,                                       !- Use Weather File Snow Indicators
  ;                                       !- Number of Times Runperiod to be Repeated

OS:LifeCycleCost:Parameters,
  {98f89278-2440-4200-911c-863c2bf2dfc8}, !- Handle
  ,                                       !- Analysis Type
  ,                                       !- Discounting Convention
  ,                                       !- Inflation Approach
  ,                                       !- Real Discount Rate
  ,                                       !- Nominal Discount Rate
  ,                                       !- Inflation
  ,                                       !- Base Date Month
  ,                                       !- Base Date Year
  ,                                       !- Service Date Month
  ,                                       !- Service Date Year
  ;                                       !- Length of Study Period in Years

OS:SurfaceConvectionAlgorithm:Outside,
  {d304a189-11fe-4a48-b773-780ebba55ae3}, !- Handle
  DOE-2;                                  !- Algorithm

OS:SurfaceConvectionAlgorithm:Inside,
  {4892a650-4688-4e5f-acf2-af7925db4439}, !- Handle
  TARP;                                   !- Algorithm

OS:ZoneCapacitanceMultiplier:ResearchSpecial,
  {eaa9f047-0d58-4c55-ac40-7032066b4626}, !- Handle
  ,                                       !- Temperature Capacity Multiplier
  15,                                     !- Humidity Capacity Multiplier
  ;                                       !- Carbon Dioxide Capacity Multiplier

OS:ThermalZone,
  {aa4277a8-6d67-4029-9150-5c9471d0253b}, !- Handle
  living zone,                            !- Name
  ,                                       !- Multiplier
  ,                                       !- Ceiling Height {m}
  ,                                       !- Volume {m3}
  ,                                       !- Floor Area {m2}
  ,                                       !- Zone Inside Convection Algorithm
  ,                                       !- Zone Outside Convection Algorithm
  ,                                       !- Zone Conditioning Equipment List Name
  {2d6748e3-d290-44e1-8afd-ca302bbd2e75}, !- Zone Air Inlet Port List
  {20b7db58-681e-4f27-8055-df45a90a158b}, !- Zone Air Exhaust Port List
  {71dddadc-e223-4bca-8fe8-1caa245b8b16}, !- Zone Air Node Name
  {3cebbe89-1fdf-491c-9c2b-7503463b1dae}, !- Zone Return Air Port List
  ,                                       !- Primary Daylighting Control Name
  ,                                       !- Fraction of Zone Controlled by Primary Daylighting Control
  ,                                       !- Secondary Daylighting Control Name
  ,                                       !- Fraction of Zone Controlled by Secondary Daylighting Control
  ,                                       !- Illuminance Map Name
  ,                                       !- Group Rendering Name
  ,                                       !- Thermostat Name
  No;                                     !- Use Ideal Air Loads

OS:Node,
  {1bf78b8d-2585-46fe-a6a7-8c58754cdb06}, !- Handle
  Node 1,                                 !- Name
  {71dddadc-e223-4bca-8fe8-1caa245b8b16}, !- Inlet Port
  ;                                       !- Outlet Port

OS:Connection,
  {71dddadc-e223-4bca-8fe8-1caa245b8b16}, !- Handle
  {84293574-11ae-4c5b-8331-dcd06652ce2b}, !- Name
  {aa4277a8-6d67-4029-9150-5c9471d0253b}, !- Source Object
  11,                                     !- Outlet Port
  {1bf78b8d-2585-46fe-a6a7-8c58754cdb06}, !- Target Object
  2;                                      !- Inlet Port

OS:PortList,
  {2d6748e3-d290-44e1-8afd-ca302bbd2e75}, !- Handle
  {c713544d-6bcf-4d60-813a-a851ceade094}, !- Name
  {aa4277a8-6d67-4029-9150-5c9471d0253b}; !- HVAC Component

OS:PortList,
  {20b7db58-681e-4f27-8055-df45a90a158b}, !- Handle
  {177f5f52-9e9a-48dc-b0d3-f59ea28cd6ac}, !- Name
  {aa4277a8-6d67-4029-9150-5c9471d0253b}; !- HVAC Component

OS:PortList,
  {3cebbe89-1fdf-491c-9c2b-7503463b1dae}, !- Handle
  {931142fd-078b-440d-bf1e-decb14011bf0}, !- Name
  {aa4277a8-6d67-4029-9150-5c9471d0253b}; !- HVAC Component

OS:Sizing:Zone,
  {f0040d67-218c-41e1-8e34-6d487479541a}, !- Handle
  {aa4277a8-6d67-4029-9150-5c9471d0253b}, !- Zone or ZoneList Name
  SupplyAirTemperature,                   !- Zone Cooling Design Supply Air Temperature Input Method
  14,                                     !- Zone Cooling Design Supply Air Temperature {C}
  11.11,                                  !- Zone Cooling Design Supply Air Temperature Difference {deltaC}
  SupplyAirTemperature,                   !- Zone Heating Design Supply Air Temperature Input Method
  40,                                     !- Zone Heating Design Supply Air Temperature {C}
  11.11,                                  !- Zone Heating Design Supply Air Temperature Difference {deltaC}
  0.0085,                                 !- Zone Cooling Design Supply Air Humidity Ratio {kg-H2O/kg-air}
  0.008,                                  !- Zone Heating Design Supply Air Humidity Ratio {kg-H2O/kg-air}
  ,                                       !- Zone Heating Sizing Factor
  ,                                       !- Zone Cooling Sizing Factor
  DesignDay,                              !- Cooling Design Air Flow Method
  ,                                       !- Cooling Design Air Flow Rate {m3/s}
  ,                                       !- Cooling Minimum Air Flow per Zone Floor Area {m3/s-m2}
  ,                                       !- Cooling Minimum Air Flow {m3/s}
  ,                                       !- Cooling Minimum Air Flow Fraction
  DesignDay,                              !- Heating Design Air Flow Method
  ,                                       !- Heating Design Air Flow Rate {m3/s}
  ,                                       !- Heating Maximum Air Flow per Zone Floor Area {m3/s-m2}
  ,                                       !- Heating Maximum Air Flow {m3/s}
  ,                                       !- Heating Maximum Air Flow Fraction
  ,                                       !- Design Zone Air Distribution Effectiveness in Cooling Mode
  ,                                       !- Design Zone Air Distribution Effectiveness in Heating Mode
  No,                                     !- Account for Dedicated Outdoor Air System
  NeutralSupplyAir,                       !- Dedicated Outdoor Air System Control Strategy
  autosize,                               !- Dedicated Outdoor Air Low Setpoint Temperature for Design {C}
  autosize;                               !- Dedicated Outdoor Air High Setpoint Temperature for Design {C}

OS:ZoneHVAC:EquipmentList,
  {76b36e52-0d96-43ec-b401-8b74dc8c6899}, !- Handle
  Zone HVAC Equipment List 1,             !- Name
  {aa4277a8-6d67-4029-9150-5c9471d0253b}; !- Thermal Zone

OS:ThermalZone,
  {8cb49c45-cf6b-4b28-a9c8-790bd9026be0}, !- Handle
  garage zone,                            !- Name
  ,                                       !- Multiplier
  ,                                       !- Ceiling Height {m}
  ,                                       !- Volume {m3}
  ,                                       !- Floor Area {m2}
  ,                                       !- Zone Inside Convection Algorithm
  ,                                       !- Zone Outside Convection Algorithm
  ,                                       !- Zone Conditioning Equipment List Name
  {214d1715-6886-4c7f-8f55-a3dc186fc80e}, !- Zone Air Inlet Port List
  {4c8818da-46c4-414b-be5f-106cc5e60ff2}, !- Zone Air Exhaust Port List
  {d9cfed8e-e9c5-4c7d-bbd7-5f066014e21b}, !- Zone Air Node Name
  {68914604-c9bb-4883-9c99-4ce8552850ef}, !- Zone Return Air Port List
  ,                                       !- Primary Daylighting Control Name
  ,                                       !- Fraction of Zone Controlled by Primary Daylighting Control
  ,                                       !- Secondary Daylighting Control Name
  ,                                       !- Fraction of Zone Controlled by Secondary Daylighting Control
  ,                                       !- Illuminance Map Name
  ,                                       !- Group Rendering Name
  ,                                       !- Thermostat Name
  No;                                     !- Use Ideal Air Loads

OS:Node,
  {1a924fd1-4e30-404d-9a8c-8b1ff77f0c07}, !- Handle
  Node 2,                                 !- Name
  {d9cfed8e-e9c5-4c7d-bbd7-5f066014e21b}, !- Inlet Port
  ;                                       !- Outlet Port

OS:Connection,
  {d9cfed8e-e9c5-4c7d-bbd7-5f066014e21b}, !- Handle
  {76a0bcf3-6a0f-4744-a011-8be1e6ff60ed}, !- Name
  {8cb49c45-cf6b-4b28-a9c8-790bd9026be0}, !- Source Object
  11,                                     !- Outlet Port
  {1a924fd1-4e30-404d-9a8c-8b1ff77f0c07}, !- Target Object
  2;                                      !- Inlet Port

OS:PortList,
  {214d1715-6886-4c7f-8f55-a3dc186fc80e}, !- Handle
  {35808a44-6bb0-4c8c-9906-4bbfeb8dd2f9}, !- Name
  {8cb49c45-cf6b-4b28-a9c8-790bd9026be0}; !- HVAC Component

OS:PortList,
  {4c8818da-46c4-414b-be5f-106cc5e60ff2}, !- Handle
  {ddd01ca7-a94a-4ab2-a7a8-a390e09cd5cd}, !- Name
  {8cb49c45-cf6b-4b28-a9c8-790bd9026be0}; !- HVAC Component

OS:PortList,
  {68914604-c9bb-4883-9c99-4ce8552850ef}, !- Handle
  {4327c8fa-ba10-4f9f-bebe-b6a22596c40f}, !- Name
  {8cb49c45-cf6b-4b28-a9c8-790bd9026be0}; !- HVAC Component

OS:Sizing:Zone,
  {151ef611-861c-4bdf-b4f7-508c58614a75}, !- Handle
  {8cb49c45-cf6b-4b28-a9c8-790bd9026be0}, !- Zone or ZoneList Name
  SupplyAirTemperature,                   !- Zone Cooling Design Supply Air Temperature Input Method
  14,                                     !- Zone Cooling Design Supply Air Temperature {C}
  11.11,                                  !- Zone Cooling Design Supply Air Temperature Difference {deltaC}
  SupplyAirTemperature,                   !- Zone Heating Design Supply Air Temperature Input Method
  40,                                     !- Zone Heating Design Supply Air Temperature {C}
  11.11,                                  !- Zone Heating Design Supply Air Temperature Difference {deltaC}
  0.0085,                                 !- Zone Cooling Design Supply Air Humidity Ratio {kg-H2O/kg-air}
  0.008,                                  !- Zone Heating Design Supply Air Humidity Ratio {kg-H2O/kg-air}
  ,                                       !- Zone Heating Sizing Factor
  ,                                       !- Zone Cooling Sizing Factor
  DesignDay,                              !- Cooling Design Air Flow Method
  ,                                       !- Cooling Design Air Flow Rate {m3/s}
  ,                                       !- Cooling Minimum Air Flow per Zone Floor Area {m3/s-m2}
  ,                                       !- Cooling Minimum Air Flow {m3/s}
  ,                                       !- Cooling Minimum Air Flow Fraction
  DesignDay,                              !- Heating Design Air Flow Method
  ,                                       !- Heating Design Air Flow Rate {m3/s}
  ,                                       !- Heating Maximum Air Flow per Zone Floor Area {m3/s-m2}
  ,                                       !- Heating Maximum Air Flow {m3/s}
  ,                                       !- Heating Maximum Air Flow Fraction
  ,                                       !- Design Zone Air Distribution Effectiveness in Cooling Mode
  ,                                       !- Design Zone Air Distribution Effectiveness in Heating Mode
  No,                                     !- Account for Dedicated Outdoor Air System
  NeutralSupplyAir,                       !- Dedicated Outdoor Air System Control Strategy
  autosize,                               !- Dedicated Outdoor Air Low Setpoint Temperature for Design {C}
  autosize;                               !- Dedicated Outdoor Air High Setpoint Temperature for Design {C}

OS:ZoneHVAC:EquipmentList,
  {210f1d40-8a43-4418-81bd-f0e10528e1a4}, !- Handle
  Zone HVAC Equipment List 2,             !- Name
  {8cb49c45-cf6b-4b28-a9c8-790bd9026be0}; !- Thermal Zone

OS:Space,
  {947536fa-68f9-4a28-923d-5d8c1971dc13}, !- Handle
  garage space,                           !- Name
  {ec3f5861-f009-4f1a-84a7-879b0257513b}, !- Space Type Name
  ,                                       !- Default Construction Set Name
  ,                                       !- Default Schedule Set Name
  -0,                                     !- Direction of Relative North {deg}
  0,                                      !- X Origin {m}
  0,                                      !- Y Origin {m}
  0,                                      !- Z Origin {m}
  ,                                       !- Building Story Name
  {8cb49c45-cf6b-4b28-a9c8-790bd9026be0}; !- Thermal Zone Name

OS:Surface,
  {92556f9f-1681-4dbf-8d1d-11d003a1d4b1}, !- Handle
  Surface 1,                              !- Name
  Floor,                                  !- Surface Type
  ,                                       !- Construction Name
  {947536fa-68f9-4a28-923d-5d8c1971dc13}, !- Space Name
  Foundation,                             !- Outside Boundary Condition
  ,                                       !- Outside Boundary Condition Object
  NoSun,                                  !- Sun Exposure
  NoWind,                                 !- Wind Exposure
  ,                                       !- View Factor to Ground
  ,                                       !- Number of Vertices
  5.57695129776527, -3.048, 0,            !- X,Y,Z Vertex 1 {m}
  5.57695129776527, 3.048, 0,             !- X,Y,Z Vertex 2 {m}
  11.6729512977653, 3.048, 0,             !- X,Y,Z Vertex 3 {m}
  11.6729512977653, -3.048, 0;            !- X,Y,Z Vertex 4 {m}

OS:Surface,
  {39c54b3e-9aaa-4a5a-9e7f-863bc4b1eb33}, !- Handle
  Surface 2,                              !- Name
  Wall,                                   !- Surface Type
  ,                                       !- Construction Name
  {947536fa-68f9-4a28-923d-5d8c1971dc13}, !- Space Name
  Surface,                                !- Outside Boundary Condition
  {4be7b276-bdab-4032-9f39-88553c9bf90c}, !- Outside Boundary Condition Object
  NoSun,                                  !- Sun Exposure
  NoWind,                                 !- Wind Exposure
  ,                                       !- View Factor to Ground
  ,                                       !- Number of Vertices
  5.57695129776527, 3.048, 2.4384,        !- X,Y,Z Vertex 1 {m}
  5.57695129776527, 3.048, 0,             !- X,Y,Z Vertex 2 {m}
  5.57695129776527, 0, 0,                 !- X,Y,Z Vertex 3 {m}
  5.57695129776527, 0, 2.4384;            !- X,Y,Z Vertex 4 {m}

OS:Surface,
  {ad8c7471-2860-4186-8f09-d7525a5d4e87}, !- Handle
  Surface 3,                              !- Name
  Wall,                                   !- Surface Type
  ,                                       !- Construction Name
  {947536fa-68f9-4a28-923d-5d8c1971dc13}, !- Space Name
  Surface,                                !- Outside Boundary Condition
  {cdd70ca6-6255-4818-a8ff-c9a1e7eb46f9}, !- Outside Boundary Condition Object
  NoSun,                                  !- Sun Exposure
  NoWind,                                 !- Wind Exposure
  ,                                       !- View Factor to Ground
  ,                                       !- Number of Vertices
  11.6729512977653, 3.048, 2.4384,        !- X,Y,Z Vertex 1 {m}
  11.6729512977653, 3.048, 0,             !- X,Y,Z Vertex 2 {m}
  5.57695129776527, 3.048, 0,             !- X,Y,Z Vertex 3 {m}
  5.57695129776527, 3.048, 2.4384;        !- X,Y,Z Vertex 4 {m}

OS:Surface,
  {34a35409-0938-4ee0-a30e-9138c8a2b43e}, !- Handle
  Surface 4,                              !- Name
  Wall,                                   !- Surface Type
  ,                                       !- Construction Name
  {947536fa-68f9-4a28-923d-5d8c1971dc13}, !- Space Name
  Outdoors,                               !- Outside Boundary Condition
  ,                                       !- Outside Boundary Condition Object
  SunExposed,                             !- Sun Exposure
  WindExposed,                            !- Wind Exposure
  ,                                       !- View Factor to Ground
  ,                                       !- Number of Vertices
  11.6729512977653, -3.048, 2.4384,       !- X,Y,Z Vertex 1 {m}
  11.6729512977653, -3.048, 0,            !- X,Y,Z Vertex 2 {m}
  11.6729512977653, 3.048, 0,             !- X,Y,Z Vertex 3 {m}
  11.6729512977653, 3.048, 2.4384;        !- X,Y,Z Vertex 4 {m}

OS:Surface,
  {e85fb064-f223-4ab6-bed1-df347f12becd}, !- Handle
  Surface 5,                              !- Name
  Wall,                                   !- Surface Type
  ,                                       !- Construction Name
  {947536fa-68f9-4a28-923d-5d8c1971dc13}, !- Space Name
  Outdoors,                               !- Outside Boundary Condition
  ,                                       !- Outside Boundary Condition Object
  SunExposed,                             !- Sun Exposure
  WindExposed,                            !- Wind Exposure
  ,                                       !- View Factor to Ground
  ,                                       !- Number of Vertices
  5.57695129776527, -3.048, 2.4384,       !- X,Y,Z Vertex 1 {m}
  5.57695129776527, -3.048, 0,            !- X,Y,Z Vertex 2 {m}
  11.6729512977653, -3.048, 0,            !- X,Y,Z Vertex 3 {m}
  11.6729512977653, -3.048, 2.4384;       !- X,Y,Z Vertex 4 {m}

OS:Surface,
  {ffe9a390-ee79-440e-887d-cf1d142821ee}, !- Handle
  Surface 6,                              !- Name
  RoofCeiling,                            !- Surface Type
  ,                                       !- Construction Name
  {947536fa-68f9-4a28-923d-5d8c1971dc13}, !- Space Name
  Surface,                                !- Outside Boundary Condition
  {578ceb51-75dd-4803-aa22-a2a01bc98c5a}, !- Outside Boundary Condition Object
  NoSun,                                  !- Sun Exposure
  NoWind,                                 !- Wind Exposure
  ,                                       !- View Factor to Ground
  ,                                       !- Number of Vertices
  11.6729512977653, -3.048, 2.4384,       !- X,Y,Z Vertex 1 {m}
  11.6729512977653, 3.048, 2.4384,        !- X,Y,Z Vertex 2 {m}
  5.57695129776527, 3.048, 2.4384,        !- X,Y,Z Vertex 3 {m}
  5.57695129776527, -3.048, 2.4384;       !- X,Y,Z Vertex 4 {m}

OS:SpaceType,
  {ec3f5861-f009-4f1a-84a7-879b0257513b}, !- Handle
  Space Type 1,                           !- Name
  ,                                       !- Default Construction Set Name
  ,                                       !- Default Schedule Set Name
  ,                                       !- Group Rendering Name
  ,                                       !- Design Specification Outdoor Air Object Name
  ,                                       !- Standards Building Type
  garage;                                 !- Standards Space Type

OS:Space,
  {fe251338-a41e-4a93-916e-01dedf40c6e5}, !- Handle
  living space,                           !- Name
  {2a59e526-b447-4beb-b9a5-09944d09a93a}, !- Space Type Name
  ,                                       !- Default Construction Set Name
  ,                                       !- Default Schedule Set Name
  -0,                                     !- Direction of Relative North {deg}
  0,                                      !- X Origin {m}
  0,                                      !- Y Origin {m}
  0,                                      !- Z Origin {m}
  ,                                       !- Building Story Name
  {aa4277a8-6d67-4029-9150-5c9471d0253b}, !- Thermal Zone Name
  ,                                       !- Part of Total Floor Area
  ,                                       !- Design Specification Outdoor Air Object Name
  {7803570f-5233-48e7-8c3e-01fca98e5c0c}; !- Building Unit Name

OS:Surface,
  {2f35f9fa-398f-4d1f-a22d-8866b8ec14b4}, !- Handle
  Surface 7,                              !- Name
  Floor,                                  !- Surface Type
  ,                                       !- Construction Name
  {fe251338-a41e-4a93-916e-01dedf40c6e5}, !- Space Name
  Surface,                                !- Outside Boundary Condition
  {3afbfc42-bd70-4903-86bf-bdd4f4ad456e}, !- Outside Boundary Condition Object
  NoSun,                                  !- Sun Exposure
  NoWind,                                 !- Wind Exposure
  ,                                       !- View Factor to Ground
  ,                                       !- Number of Vertices
  0, 0, 0,                                !- X,Y,Z Vertex 1 {m}
  0, 5.83647564888264, 0,                 !- X,Y,Z Vertex 2 {m}
  11.6729512977653, 5.83647564888264, 0,  !- X,Y,Z Vertex 3 {m}
  11.6729512977653, 3.048, 0,             !- X,Y,Z Vertex 4 {m}
  5.57695129776527, 3.048, 0,             !- X,Y,Z Vertex 5 {m}
  5.57695129776527, 0, 0;                 !- X,Y,Z Vertex 6 {m}

OS:Surface,
  {5acb7eb5-5924-4934-a625-4ff7ebd4488a}, !- Handle
  Surface 8,                              !- Name
  Wall,                                   !- Surface Type
  ,                                       !- Construction Name
  {fe251338-a41e-4a93-916e-01dedf40c6e5}, !- Space Name
  Outdoors,                               !- Outside Boundary Condition
  ,                                       !- Outside Boundary Condition Object
  SunExposed,                             !- Sun Exposure
  WindExposed,                            !- Wind Exposure
  ,                                       !- View Factor to Ground
  ,                                       !- Number of Vertices
  0, 5.83647564888264, 2.4384,            !- X,Y,Z Vertex 1 {m}
  0, 5.83647564888264, 0,                 !- X,Y,Z Vertex 2 {m}
  0, 0, 0,                                !- X,Y,Z Vertex 3 {m}
  0, 0, 2.4384;                           !- X,Y,Z Vertex 4 {m}

OS:Surface,
  {fa8bd130-f8d4-4686-b316-75874f6aaba3}, !- Handle
  Surface 9,                              !- Name
  Wall,                                   !- Surface Type
  ,                                       !- Construction Name
  {fe251338-a41e-4a93-916e-01dedf40c6e5}, !- Space Name
  Outdoors,                               !- Outside Boundary Condition
  ,                                       !- Outside Boundary Condition Object
  SunExposed,                             !- Sun Exposure
  WindExposed,                            !- Wind Exposure
  ,                                       !- View Factor to Ground
  ,                                       !- Number of Vertices
  11.6729512977653, 5.83647564888264, 2.4384, !- X,Y,Z Vertex 1 {m}
  11.6729512977653, 5.83647564888264, 0,  !- X,Y,Z Vertex 2 {m}
  0, 5.83647564888264, 0,                 !- X,Y,Z Vertex 3 {m}
  0, 5.83647564888264, 2.4384;            !- X,Y,Z Vertex 4 {m}

OS:Surface,
  {acb57aba-9aa4-46df-bcde-ca56766b008d}, !- Handle
  Surface 10,                             !- Name
  Wall,                                   !- Surface Type
  ,                                       !- Construction Name
  {fe251338-a41e-4a93-916e-01dedf40c6e5}, !- Space Name
  Outdoors,                               !- Outside Boundary Condition
  ,                                       !- Outside Boundary Condition Object
  SunExposed,                             !- Sun Exposure
  WindExposed,                            !- Wind Exposure
  ,                                       !- View Factor to Ground
  ,                                       !- Number of Vertices
  11.6729512977653, 3.048, 2.4384,        !- X,Y,Z Vertex 1 {m}
  11.6729512977653, 3.048, 0,             !- X,Y,Z Vertex 2 {m}
  11.6729512977653, 5.83647564888264, 0,  !- X,Y,Z Vertex 3 {m}
  11.6729512977653, 5.83647564888264, 2.4384; !- X,Y,Z Vertex 4 {m}

OS:Surface,
  {cdd70ca6-6255-4818-a8ff-c9a1e7eb46f9}, !- Handle
  Surface 11,                             !- Name
  Wall,                                   !- Surface Type
  ,                                       !- Construction Name
  {fe251338-a41e-4a93-916e-01dedf40c6e5}, !- Space Name
  Surface,                                !- Outside Boundary Condition
  {ad8c7471-2860-4186-8f09-d7525a5d4e87}, !- Outside Boundary Condition Object
  NoSun,                                  !- Sun Exposure
  NoWind,                                 !- Wind Exposure
  ,                                       !- View Factor to Ground
  ,                                       !- Number of Vertices
  5.57695129776527, 3.048, 2.4384,        !- X,Y,Z Vertex 1 {m}
  5.57695129776527, 3.048, 0,             !- X,Y,Z Vertex 2 {m}
  11.6729512977653, 3.048, 0,             !- X,Y,Z Vertex 3 {m}
  11.6729512977653, 3.048, 2.4384;        !- X,Y,Z Vertex 4 {m}

OS:Surface,
  {4be7b276-bdab-4032-9f39-88553c9bf90c}, !- Handle
  Surface 12,                             !- Name
  Wall,                                   !- Surface Type
  ,                                       !- Construction Name
  {fe251338-a41e-4a93-916e-01dedf40c6e5}, !- Space Name
  Surface,                                !- Outside Boundary Condition
  {39c54b3e-9aaa-4a5a-9e7f-863bc4b1eb33}, !- Outside Boundary Condition Object
  NoSun,                                  !- Sun Exposure
  NoWind,                                 !- Wind Exposure
  ,                                       !- View Factor to Ground
  ,                                       !- Number of Vertices
  5.57695129776527, 0, 2.4384,            !- X,Y,Z Vertex 1 {m}
  5.57695129776527, 0, 0,                 !- X,Y,Z Vertex 2 {m}
  5.57695129776527, 3.048, 0,             !- X,Y,Z Vertex 3 {m}
  5.57695129776527, 3.048, 2.4384;        !- X,Y,Z Vertex 4 {m}

OS:Surface,
  {80e024c4-b78e-4420-8739-a96547196bc5}, !- Handle
  Surface 13,                             !- Name
  Wall,                                   !- Surface Type
  ,                                       !- Construction Name
  {fe251338-a41e-4a93-916e-01dedf40c6e5}, !- Space Name
  Outdoors,                               !- Outside Boundary Condition
  ,                                       !- Outside Boundary Condition Object
  SunExposed,                             !- Sun Exposure
  WindExposed,                            !- Wind Exposure
  ,                                       !- View Factor to Ground
  ,                                       !- Number of Vertices
  0, 0, 2.4384,                           !- X,Y,Z Vertex 1 {m}