!- NOTE: Auto-generated from /test/osw_files/SFD_2000sqft_2story_FB_GRG_UA_3Beds_2Baths_Denver_WHTank_SHW.osw

OS:Version,
  {b414ed42-f07f-4d54-9e9f-223fe8464b9b}, !- Handle
  2.6.1;                                  !- Version Identifier

OS:Building,
  {39debcb9-67fc-4601-94c4-256ca17dccaa}, !- Handle
  Building 1,                             !- Name
  ,                                       !- Building Sector Type
  0,                                      !- North Axis {deg}
  ,                                       !- Nominal Floor to Floor Height {m}
  ,                                       !- Space Type Name
  ,                                       !- Default Construction Set Name
  ,                                       !- Default Schedule Set Name
  3,                                      !- Standards Number of Stories
  2,                                      !- Standards Number of Above Ground Stories
  singlefamilydetached,                   !- Standards Building Type
  1;                                      !- Standards Number of Living Units

OS:Facility,
  {ff0971b5-7f88-467d-b478-1626485217d9}; !- Handle

OS:Site,
  {50eae8a5-7551-4097-85df-9c7251d1d48c}, !- Handle
  Denver Intl Ap_CO_USA,                  !- Name
  39.83,                                  !- Latitude {deg}
  -104.65,                                !- Longitude {deg}
  -7,                                     !- Time Zone {hr}
  1650,                                   !- Elevation {m}
  ;                                       !- Terrain

OS:SimulationControl,
  {c34d0513-cd56-4e47-ad4d-edb513452439}, !- Handle
  ,                                       !- Do Zone Sizing Calculation
  ,                                       !- Do System Sizing Calculation
  ,                                       !- Do Plant Sizing Calculation
  No;                                     !- Run Simulation for Sizing Periods

OS:Sizing:Parameters,
  {8ba2539f-61a5-45b4-8082-b899eeb97fd7}, !- Handle
  1.25,                                   !- Heating Sizing Factor
  1.15;                                   !- Cooling Sizing Factor

OS:Timestep,
  {2b0f3481-6fa0-4350-a34c-92403f110eb1}, !- Handle
  6;                                      !- Number of Timesteps per Hour

OS:ShadowCalculation,
  {2a848dd2-f630-4003-a300-ebecefa3e5ef}, !- Handle
  20,                                     !- Calculation Frequency
  200;                                    !- Maximum Figures in Shadow Overlap Calculations

OS:HeatBalanceAlgorithm,
  {06df6903-dfa5-48c1-a225-a1374dabfd01}, !- Handle
  ConductionTransferFunction,             !- Algorithm
  200;                                    !- Surface Temperature Upper Limit {C}

OS:RunPeriod,
  {a63d3f16-b6a1-4016-9fd5-59a2fa9fc215}, !- Handle
  Run Period 1,                           !- Name
  1,                                      !- Begin Month
  1,                                      !- Begin Day of Month
  12,                                     !- End Month
  31,                                     !- End Day of Month
  ,                                       !- Use Weather File Holidays and Special Days
  ,                                       !- Use Weather File Daylight Saving Period
  ,                                       !- Apply Weekend Holiday Rule
  ,                                       !- Use Weather File Rain Indicators
  ,                                       !- Use Weather File Snow Indicators
  ;                                       !- Number of Times Runperiod to be Repeated

OS:LifeCycleCost:Parameters,
  {0b78ed14-c5e2-4b46-9318-0db6264f2449}, !- Handle
  ,                                       !- Analysis Type
  ,                                       !- Discounting Convention
  ,                                       !- Inflation Approach
  ,                                       !- Real Discount Rate
  ,                                       !- Nominal Discount Rate
  ,                                       !- Inflation
  ,                                       !- Base Date Month
  ,                                       !- Base Date Year
  ,                                       !- Service Date Month
  ,                                       !- Service Date Year
  ;                                       !- Length of Study Period in Years

OS:ThermalZone,
  {b570ae6a-5183-4a51-ad00-78eed40ec4b5}, !- Handle
  living zone,                            !- Name
  ,                                       !- Multiplier
  ,                                       !- Ceiling Height {m}
  ,                                       !- Volume {m3}
  ,                                       !- Floor Area {m2}
  ,                                       !- Zone Inside Convection Algorithm
  ,                                       !- Zone Outside Convection Algorithm
  ,                                       !- Zone Conditioning Equipment List Name
  {5fc51c49-36cc-4f90-b202-7c82afa45028}, !- Zone Air Inlet Port List
  {4e863ce8-86ee-4100-a225-4d536b4d6164}, !- Zone Air Exhaust Port List
  {c37f5978-45b3-4555-8b33-799893b95a33}, !- Zone Air Node Name
  {cfa17b5d-2aa0-444c-94c5-73c302609397}, !- Zone Return Air Port List
  ,                                       !- Primary Daylighting Control Name
  ,                                       !- Fraction of Zone Controlled by Primary Daylighting Control
  ,                                       !- Secondary Daylighting Control Name
  ,                                       !- Fraction of Zone Controlled by Secondary Daylighting Control
  ,                                       !- Illuminance Map Name
  ,                                       !- Group Rendering Name
  ,                                       !- Thermostat Name
  No;                                     !- Use Ideal Air Loads

OS:Node,
  {ac5963db-b41e-4ee7-b13e-757fbb9e32f0}, !- Handle
  Node 1,                                 !- Name
  {c37f5978-45b3-4555-8b33-799893b95a33}, !- Inlet Port
  ;                                       !- Outlet Port

OS:Connection,
  {c37f5978-45b3-4555-8b33-799893b95a33}, !- Handle
  {fcedda48-fc5d-4106-b7dc-5a6849afbb50}, !- Name
  {b570ae6a-5183-4a51-ad00-78eed40ec4b5}, !- Source Object
  11,                                     !- Outlet Port
  {ac5963db-b41e-4ee7-b13e-757fbb9e32f0}, !- Target Object
  2;                                      !- Inlet Port

OS:PortList,
  {5fc51c49-36cc-4f90-b202-7c82afa45028}, !- Handle
  {128b5f37-51c5-4f29-91e8-78354892aebb}, !- Name
  {b570ae6a-5183-4a51-ad00-78eed40ec4b5}; !- HVAC Component

OS:PortList,
  {4e863ce8-86ee-4100-a225-4d536b4d6164}, !- Handle
  {bbccabaf-ef03-42a2-aa3c-4b9c2215756b}, !- Name
  {b570ae6a-5183-4a51-ad00-78eed40ec4b5}; !- HVAC Component

OS:PortList,
  {cfa17b5d-2aa0-444c-94c5-73c302609397}, !- Handle
  {d6aea637-25d4-4867-8524-b357d101f468}, !- Name
  {b570ae6a-5183-4a51-ad00-78eed40ec4b5}; !- HVAC Component

OS:Sizing:Zone,
  {b1bfb7e4-6763-4c1d-8764-700d6f11c37f}, !- Handle
  {b570ae6a-5183-4a51-ad00-78eed40ec4b5}, !- Zone or ZoneList Name
  SupplyAirTemperature,                   !- Zone Cooling Design Supply Air Temperature Input Method
  14,                                     !- Zone Cooling Design Supply Air Temperature {C}
  11.11,                                  !- Zone Cooling Design Supply Air Temperature Difference {deltaC}
  SupplyAirTemperature,                   !- Zone Heating Design Supply Air Temperature Input Method
  40,                                     !- Zone Heating Design Supply Air Temperature {C}
  11.11,                                  !- Zone Heating Design Supply Air Temperature Difference {deltaC}
  0.0085,                                 !- Zone Cooling Design Supply Air Humidity Ratio {kg-H2O/kg-air}
  0.008,                                  !- Zone Heating Design Supply Air Humidity Ratio {kg-H2O/kg-air}
  ,                                       !- Zone Heating Sizing Factor
  ,                                       !- Zone Cooling Sizing Factor
  DesignDay,                              !- Cooling Design Air Flow Method
  ,                                       !- Cooling Design Air Flow Rate {m3/s}
  ,                                       !- Cooling Minimum Air Flow per Zone Floor Area {m3/s-m2}
  ,                                       !- Cooling Minimum Air Flow {m3/s}
  ,                                       !- Cooling Minimum Air Flow Fraction
  DesignDay,                              !- Heating Design Air Flow Method
  ,                                       !- Heating Design Air Flow Rate {m3/s}
  ,                                       !- Heating Maximum Air Flow per Zone Floor Area {m3/s-m2}
  ,                                       !- Heating Maximum Air Flow {m3/s}
  ,                                       !- Heating Maximum Air Flow Fraction
  ,                                       !- Design Zone Air Distribution Effectiveness in Cooling Mode
  ,                                       !- Design Zone Air Distribution Effectiveness in Heating Mode
  No,                                     !- Account for Dedicated Outdoor Air System
  NeutralSupplyAir,                       !- Dedicated Outdoor Air System Control Strategy
  autosize,                               !- Dedicated Outdoor Air Low Setpoint Temperature for Design {C}
  autosize;                               !- Dedicated Outdoor Air High Setpoint Temperature for Design {C}

OS:ZoneHVAC:EquipmentList,
  {6415b1f8-d5ac-423a-91a0-f45c3bceea5c}, !- Handle
  Zone HVAC Equipment List 1,             !- Name
  {b570ae6a-5183-4a51-ad00-78eed40ec4b5}; !- Thermal Zone

OS:ThermalZone,
  {dba47a7c-dec4-4180-a79c-245b9745cf33}, !- Handle
  garage zone,                            !- Name
  ,                                       !- Multiplier
  ,                                       !- Ceiling Height {m}
  ,                                       !- Volume {m3}
  ,                                       !- Floor Area {m2}
  ,                                       !- Zone Inside Convection Algorithm
  ,                                       !- Zone Outside Convection Algorithm
  ,                                       !- Zone Conditioning Equipment List Name
  {c06891fc-5cd4-408e-8870-09ae0d83926a}, !- Zone Air Inlet Port List
  {ee70349f-7f2d-400e-a95d-d5d7c2392fd1}, !- Zone Air Exhaust Port List
  {6e527b0a-da39-4b75-8a00-eeda8af228a9}, !- Zone Air Node Name
  {be0d7e00-2a9d-4ad6-8995-1d8bcbf6e307}, !- Zone Return Air Port List
  ,                                       !- Primary Daylighting Control Name
  ,                                       !- Fraction of Zone Controlled by Primary Daylighting Control
  ,                                       !- Secondary Daylighting Control Name
  ,                                       !- Fraction of Zone Controlled by Secondary Daylighting Control
  ,                                       !- Illuminance Map Name
  ,                                       !- Group Rendering Name
  ,                                       !- Thermostat Name
  No;                                     !- Use Ideal Air Loads

OS:Node,
  {772f3fd3-94f8-4f31-8f1b-c6d2a76ecb79}, !- Handle
  Node 2,                                 !- Name
  {6e527b0a-da39-4b75-8a00-eeda8af228a9}, !- Inlet Port
  ;                                       !- Outlet Port

OS:Connection,
  {6e527b0a-da39-4b75-8a00-eeda8af228a9}, !- Handle
  {02a9d800-daf2-422b-9bf3-97ff71918217}, !- Name
  {dba47a7c-dec4-4180-a79c-245b9745cf33}, !- Source Object
  11,                                     !- Outlet Port
  {772f3fd3-94f8-4f31-8f1b-c6d2a76ecb79}, !- Target Object
  2;                                      !- Inlet Port

OS:PortList,
  {c06891fc-5cd4-408e-8870-09ae0d83926a}, !- Handle
  {4b95f63f-e58e-4f9f-b1b2-cd1d0828d01a}, !- Name
  {dba47a7c-dec4-4180-a79c-245b9745cf33}; !- HVAC Component

OS:PortList,
  {ee70349f-7f2d-400e-a95d-d5d7c2392fd1}, !- Handle
  {f1f7a15a-a6bd-42d9-946a-5dcf32b33d24}, !- Name
  {dba47a7c-dec4-4180-a79c-245b9745cf33}; !- HVAC Component

OS:PortList,
  {be0d7e00-2a9d-4ad6-8995-1d8bcbf6e307}, !- Handle
  {aca038f6-659d-44fd-a07b-d1f79307f4de}, !- Name
  {dba47a7c-dec4-4180-a79c-245b9745cf33}; !- HVAC Component

OS:Sizing:Zone,
  {4c2b945a-324e-49ca-ae94-551387f498a5}, !- Handle
  {dba47a7c-dec4-4180-a79c-245b9745cf33}, !- Zone or ZoneList Name
  SupplyAirTemperature,                   !- Zone Cooling Design Supply Air Temperature Input Method
  14,                                     !- Zone Cooling Design Supply Air Temperature {C}
  11.11,                                  !- Zone Cooling Design Supply Air Temperature Difference {deltaC}
  SupplyAirTemperature,                   !- Zone Heating Design Supply Air Temperature Input Method
  40,                                     !- Zone Heating Design Supply Air Temperature {C}
  11.11,                                  !- Zone Heating Design Supply Air Temperature Difference {deltaC}
  0.0085,                                 !- Zone Cooling Design Supply Air Humidity Ratio {kg-H2O/kg-air}
  0.008,                                  !- Zone Heating Design Supply Air Humidity Ratio {kg-H2O/kg-air}
  ,                                       !- Zone Heating Sizing Factor
  ,                                       !- Zone Cooling Sizing Factor
  DesignDay,                              !- Cooling Design Air Flow Method
  ,                                       !- Cooling Design Air Flow Rate {m3/s}
  ,                                       !- Cooling Minimum Air Flow per Zone Floor Area {m3/s-m2}
  ,                                       !- Cooling Minimum Air Flow {m3/s}
  ,                                       !- Cooling Minimum Air Flow Fraction
  DesignDay,                              !- Heating Design Air Flow Method
  ,                                       !- Heating Design Air Flow Rate {m3/s}
  ,                                       !- Heating Maximum Air Flow per Zone Floor Area {m3/s-m2}
  ,                                       !- Heating Maximum Air Flow {m3/s}
  ,                                       !- Heating Maximum Air Flow Fraction
  ,                                       !- Design Zone Air Distribution Effectiveness in Cooling Mode
  ,                                       !- Design Zone Air Distribution Effectiveness in Heating Mode
  No,                                     !- Account for Dedicated Outdoor Air System
  NeutralSupplyAir,                       !- Dedicated Outdoor Air System Control Strategy
  autosize,                               !- Dedicated Outdoor Air Low Setpoint Temperature for Design {C}
  autosize;                               !- Dedicated Outdoor Air High Setpoint Temperature for Design {C}

OS:ZoneHVAC:EquipmentList,
  {a6822f25-d2e5-4868-a7f2-257921f6ef5d}, !- Handle
  Zone HVAC Equipment List 2,             !- Name
  {dba47a7c-dec4-4180-a79c-245b9745cf33}; !- Thermal Zone

OS:Space,
  {56fdb3d2-c47d-4672-acca-bdae0b559d97}, !- Handle
  garage space,                           !- Name
  {4cd08661-507a-4cff-ae6a-5c3f90925635}, !- Space Type Name
  ,                                       !- Default Construction Set Name
  ,                                       !- Default Schedule Set Name
  -0,                                     !- Direction of Relative North {deg}
  0,                                      !- X Origin {m}
  0,                                      !- Y Origin {m}
  0,                                      !- Z Origin {m}
  ,                                       !- Building Story Name
  {dba47a7c-dec4-4180-a79c-245b9745cf33}; !- Thermal Zone Name

OS:Surface,
  {99d8b03d-8060-40e1-88d8-bfd32189788c}, !- Handle
  Surface 1,                              !- Name
  Floor,                                  !- Surface Type
  ,                                       !- Construction Name
  {56fdb3d2-c47d-4672-acca-bdae0b559d97}, !- Space Name
  Foundation,                             !- Outside Boundary Condition
  ,                                       !- Outside Boundary Condition Object
  NoSun,                                  !- Sun Exposure
  NoWind,                                 !- Wind Exposure
  ,                                       !- View Factor to Ground
  ,                                       !- Number of Vertices
  5.57695129776527, -3.048, 0,            !- X,Y,Z Vertex 1 {m}
  5.57695129776527, 3.048, 0,             !- X,Y,Z Vertex 2 {m}
  11.6729512977653, 3.048, 0,             !- X,Y,Z Vertex 3 {m}
  11.6729512977653, -3.048, 0;            !- X,Y,Z Vertex 4 {m}

OS:Surface,
  {b8dc78d7-6fcb-48e5-8ff1-8c0377c3cba9}, !- Handle
  Surface 2,                              !- Name
  Wall,                                   !- Surface Type
  ,                                       !- Construction Name
  {56fdb3d2-c47d-4672-acca-bdae0b559d97}, !- Space Name
  Surface,                                !- Outside Boundary Condition
  {b6c759e2-bdcf-4316-bca2-3a0a2c378355}, !- Outside Boundary Condition Object
  NoSun,                                  !- Sun Exposure
  NoWind,                                 !- Wind Exposure
  ,                                       !- View Factor to Ground
  ,                                       !- Number of Vertices
  5.57695129776527, 3.048, 2.4384,        !- X,Y,Z Vertex 1 {m}
  5.57695129776527, 3.048, 0,             !- X,Y,Z Vertex 2 {m}
  5.57695129776527, 0, 0,                 !- X,Y,Z Vertex 3 {m}
  5.57695129776527, 0, 2.4384;            !- X,Y,Z Vertex 4 {m}

OS:Surface,
  {63e1cc98-8114-467e-959c-1a469863b837}, !- Handle
  Surface 3,                              !- Name
  Wall,                                   !- Surface Type
  ,                                       !- Construction Name
  {56fdb3d2-c47d-4672-acca-bdae0b559d97}, !- Space Name
  Surface,                                !- Outside Boundary Condition
  {0bae86f2-6d17-4ad1-b438-7d9ea371dfcc}, !- Outside Boundary Condition Object
  NoSun,                                  !- Sun Exposure
  NoWind,                                 !- Wind Exposure
  ,                                       !- View Factor to Ground
  ,                                       !- Number of Vertices
  11.6729512977653, 3.048, 2.4384,        !- X,Y,Z Vertex 1 {m}
  11.6729512977653, 3.048, 0,             !- X,Y,Z Vertex 2 {m}
  5.57695129776527, 3.048, 0,             !- X,Y,Z Vertex 3 {m}
  5.57695129776527, 3.048, 2.4384;        !- X,Y,Z Vertex 4 {m}

OS:Surface,
  {d4818604-7f33-43ba-8f93-72b75db78880}, !- Handle
  Surface 4,                              !- Name
  Wall,                                   !- Surface Type
  ,                                       !- Construction Name
  {56fdb3d2-c47d-4672-acca-bdae0b559d97}, !- Space Name
  Outdoors,                               !- Outside Boundary Condition
  ,                                       !- Outside Boundary Condition Object
  SunExposed,                             !- Sun Exposure
  WindExposed,                            !- Wind Exposure
  ,                                       !- View Factor to Ground
  ,                                       !- Number of Vertices
  11.6729512977653, -3.048, 2.4384,       !- X,Y,Z Vertex 1 {m}
  11.6729512977653, -3.048, 0,            !- X,Y,Z Vertex 2 {m}
  11.6729512977653, 3.048, 0,             !- X,Y,Z Vertex 3 {m}
  11.6729512977653, 3.048, 2.4384;        !- X,Y,Z Vertex 4 {m}

OS:Surface,
  {1cbee403-d181-4612-ae5b-9415f464b843}, !- Handle
  Surface 5,                              !- Name
  Wall,                                   !- Surface Type
  ,                                       !- Construction Name
  {56fdb3d2-c47d-4672-acca-bdae0b559d97}, !- Space Name
  Outdoors,                               !- Outside Boundary Condition
  ,                                       !- Outside Boundary Condition Object
  SunExposed,                             !- Sun Exposure
  WindExposed,                            !- Wind Exposure
  ,                                       !- View Factor to Ground
  ,                                       !- Number of Vertices
  5.57695129776527, -3.048, 2.4384,       !- X,Y,Z Vertex 1 {m}
  5.57695129776527, -3.048, 0,            !- X,Y,Z Vertex 2 {m}
  11.6729512977653, -3.048, 0,            !- X,Y,Z Vertex 3 {m}
  11.6729512977653, -3.048, 2.4384;       !- X,Y,Z Vertex 4 {m}

OS:Surface,
  {8496a3cc-5570-425b-9f1f-a963c717e81a}, !- Handle
  Surface 6,                              !- Name
  RoofCeiling,                            !- Surface Type
  ,                                       !- Construction Name
  {56fdb3d2-c47d-4672-acca-bdae0b559d97}, !- Space Name
  Surface,                                !- Outside Boundary Condition
  {ef8931f2-c18d-4c92-9554-b15c20582894}, !- Outside Boundary Condition Object
  NoSun,                                  !- Sun Exposure
  NoWind,                                 !- Wind Exposure
  ,                                       !- View Factor to Ground
  ,                                       !- Number of Vertices
  11.6729512977653, -3.048, 2.4384,       !- X,Y,Z Vertex 1 {m}
  11.6729512977653, 3.048, 2.4384,        !- X,Y,Z Vertex 2 {m}
  5.57695129776527, 3.048, 2.4384,        !- X,Y,Z Vertex 3 {m}
  5.57695129776527, -3.048, 2.4384;       !- X,Y,Z Vertex 4 {m}

OS:SpaceType,
  {4cd08661-507a-4cff-ae6a-5c3f90925635}, !- Handle
  Space Type 1,                           !- Name
  ,                                       !- Default Construction Set Name
  ,                                       !- Default Schedule Set Name
  ,                                       !- Group Rendering Name
  ,                                       !- Design Specification Outdoor Air Object Name
  ,                                       !- Standards Building Type
  garage;                                 !- Standards Space Type

OS:Space,
  {5e63d2cd-8742-4792-944e-3610d0aa9749}, !- Handle
  living space,                           !- Name
  {6d7d08fd-a077-45ea-b8cc-37d48e2c3b18}, !- Space Type Name
  ,                                       !- Default Construction Set Name
  ,                                       !- Default Schedule Set Name
  -0,                                     !- Direction of Relative North {deg}
  0,                                      !- X Origin {m}
  0,                                      !- Y Origin {m}
  0,                                      !- Z Origin {m}
  ,                                       !- Building Story Name
  {b570ae6a-5183-4a51-ad00-78eed40ec4b5}, !- Thermal Zone Name
  ,                                       !- Part of Total Floor Area
  ,                                       !- Design Specification Outdoor Air Object Name
  {e902a371-7b4e-47e8-ad9b-63a0ed6b37ca}; !- Building Unit Name

OS:Surface,
  {25eee2e4-6728-4e3c-aa32-3b6442a13697}, !- Handle
  Surface 7,                              !- Name
  Floor,                                  !- Surface Type
  ,                                       !- Construction Name
  {5e63d2cd-8742-4792-944e-3610d0aa9749}, !- Space Name
  Surface,                                !- Outside Boundary Condition
  {70fd37a8-af78-4d13-8369-90b428c8efce}, !- Outside Boundary Condition Object
  NoSun,                                  !- Sun Exposure
  NoWind,                                 !- Wind Exposure
  ,                                       !- View Factor to Ground
  ,                                       !- Number of Vertices
  0, 0, 0,                                !- X,Y,Z Vertex 1 {m}
  0, 5.83647564888264, 0,                 !- X,Y,Z Vertex 2 {m}
  11.6729512977653, 5.83647564888264, 0,  !- X,Y,Z Vertex 3 {m}
  11.6729512977653, 3.048, 0,             !- X,Y,Z Vertex 4 {m}
  5.57695129776527, 3.048, 0,             !- X,Y,Z Vertex 5 {m}
  5.57695129776527, 0, 0;                 !- X,Y,Z Vertex 6 {m}

OS:Surface,
  {5a0009a6-781c-4e68-bda9-183ae940d340}, !- Handle
  Surface 8,                              !- Name
  Wall,                                   !- Surface Type
  ,                                       !- Construction Name
  {5e63d2cd-8742-4792-944e-3610d0aa9749}, !- Space Name
  Outdoors,                               !- Outside Boundary Condition
  ,                                       !- Outside Boundary Condition Object
  SunExposed,                             !- Sun Exposure
  WindExposed,                            !- Wind Exposure
  ,                                       !- View Factor to Ground
  ,                                       !- Number of Vertices
  0, 5.83647564888264, 2.4384,            !- X,Y,Z Vertex 1 {m}
  0, 5.83647564888264, 0,                 !- X,Y,Z Vertex 2 {m}
  0, 0, 0,                                !- X,Y,Z Vertex 3 {m}
  0, 0, 2.4384;                           !- X,Y,Z Vertex 4 {m}

OS:Surface,
  {e7e2b8e7-e115-4931-a2a3-980952259b1a}, !- Handle
  Surface 9,                              !- Name
  Wall,                                   !- Surface Type
  ,                                       !- Construction Name
  {5e63d2cd-8742-4792-944e-3610d0aa9749}, !- Space Name
  Outdoors,                               !- Outside Boundary Condition
  ,                                       !- Outside Boundary Condition Object
  SunExposed,                             !- Sun Exposure
  WindExposed,                            !- Wind Exposure
  ,                                       !- View Factor to Ground
  ,                                       !- Number of Vertices
  11.6729512977653, 5.83647564888264, 2.4384, !- X,Y,Z Vertex 1 {m}
  11.6729512977653, 5.83647564888264, 0,  !- X,Y,Z Vertex 2 {m}
  0, 5.83647564888264, 0,                 !- X,Y,Z Vertex 3 {m}
  0, 5.83647564888264, 2.4384;            !- X,Y,Z Vertex 4 {m}

OS:Surface,
  {5ab0ec92-167c-4480-a19b-aaa6ba48dc93}, !- Handle
  Surface 10,                             !- Name
  Wall,                                   !- Surface Type
  ,                                       !- Construction Name
  {5e63d2cd-8742-4792-944e-3610d0aa9749}, !- Space Name
  Outdoors,                               !- Outside Boundary Condition
  ,                                       !- Outside Boundary Condition Object
  SunExposed,                             !- Sun Exposure
  WindExposed,                            !- Wind Exposure
  ,                                       !- View Factor to Ground
  ,                                       !- Number of Vertices
  11.6729512977653, 3.048, 2.4384,        !- X,Y,Z Vertex 1 {m}
  11.6729512977653, 3.048, 0,             !- X,Y,Z Vertex 2 {m}
  11.6729512977653, 5.83647564888264, 0,  !- X,Y,Z Vertex 3 {m}
  11.6729512977653, 5.83647564888264, 2.4384; !- X,Y,Z Vertex 4 {m}

OS:Surface,
  {0bae86f2-6d17-4ad1-b438-7d9ea371dfcc}, !- Handle
  Surface 11,                             !- Name
  Wall,                                   !- Surface Type
  ,                                       !- Construction Name
  {5e63d2cd-8742-4792-944e-3610d0aa9749}, !- Space Name
  Surface,                                !- Outside Boundary Condition
  {63e1cc98-8114-467e-959c-1a469863b837}, !- Outside Boundary Condition Object
  NoSun,                                  !- Sun Exposure
  NoWind,                                 !- Wind Exposure
  ,                                       !- View Factor to Ground
  ,                                       !- Number of Vertices
  5.57695129776527, 3.048, 2.4384,        !- X,Y,Z Vertex 1 {m}
  5.57695129776527, 3.048, 0,             !- X,Y,Z Vertex 2 {m}
  11.6729512977653, 3.048, 0,             !- X,Y,Z Vertex 3 {m}
  11.6729512977653, 3.048, 2.4384;        !- X,Y,Z Vertex 4 {m}

OS:Surface,
  {b6c759e2-bdcf-4316-bca2-3a0a2c378355}, !- Handle
  Surface 12,                             !- Name
  Wall,                                   !- Surface Type
  ,                                       !- Construction Name
  {5e63d2cd-8742-4792-944e-3610d0aa9749}, !- Space Name
  Surface,                                !- Outside Boundary Condition
  {b8dc78d7-6fcb-48e5-8ff1-8c0377c3cba9}, !- Outside Boundary Condition Object
  NoSun,                                  !- Sun Exposure
  NoWind,                                 !- Wind Exposure
  ,                                       !- View Factor to Ground
  ,                                       !- Number of Vertices
  5.57695129776527, 0, 2.4384,            !- X,Y,Z Vertex 1 {m}
  5.57695129776527, 0, 0,                 !- X,Y,Z Vertex 2 {m}
  5.57695129776527, 3.048, 0,             !- X,Y,Z Vertex 3 {m}
  5.57695129776527, 3.048, 2.4384;        !- X,Y,Z Vertex 4 {m}

OS:Surface,
  {073612a8-3d9b-4041-8954-2a615754a1ea}, !- Handle
  Surface 13,                             !- Name
  Wall,                                   !- Surface Type
  ,                                       !- Construction Name
  {5e63d2cd-8742-4792-944e-3610d0aa9749}, !- Space Name
  Outdoors,                               !- Outside Boundary Condition
  ,                                       !- Outside Boundary Condition Object
  SunExposed,                             !- Sun Exposure
  WindExposed,                            !- Wind Exposure
  ,                                       !- View Factor to Ground
  ,                                       !- Number of Vertices
  0, 0, 2.4384,                           !- X,Y,Z Vertex 1 {m}
  0, 0, 0,                                !- X,Y,Z Vertex 2 {m}
  5.57695129776527, 0, 0,                 !- X,Y,Z Vertex 3 {m}
  5.57695129776527, 0, 2.4384;            !- X,Y,Z Vertex 4 {m}

OS:Surface,
  {aa608fa5-fbfb-4efc-b1ae-8d649f4d6080}, !- Handle
  Surface 14,                             !- Name
  RoofCeiling,                            !- Surface Type
  ,                                       !- Construction Name
  {5e63d2cd-8742-4792-944e-3610d0aa9749}, !- Space Name
  Surface,                                !- Outside Boundary Condition