!- NOTE: Auto-generated from /test/osw_files/MF_8units_1story_SL_Denver.osw

OS:Version,
  {8f9b3478-af14-47a9-b7fe-9e1d27eb187d}, !- Handle
  2.7.0;                                  !- Version Identifier

OS:Building,
  {4a56c5e9-bed7-4877-a750-78a3ce877670}, !- Handle
  Building 1,                             !- Name
  ,                                       !- Building Sector Type
  0,                                      !- North Axis {deg}
  ,                                       !- Nominal Floor to Floor Height {m}
  ,                                       !- Space Type Name
  ,                                       !- Default Construction Set Name
  ,                                       !- Default Schedule Set Name
  1,                                      !- Standards Number of Stories
  1,                                      !- Standards Number of Above Ground Stories
  ,                                       !- Standards Template
  multifamily,                            !- Standards Building Type
  8;                                      !- Standards Number of Living Units

OS:Facility,
  {84b23f3e-5b71-4469-822d-2a30a2453f17}; !- Handle

OS:Site,
  {93b83c0a-fe58-42d0-bf52-1bb0bc825840}, !- Handle
  Denver Intl Ap_CO_USA,                  !- Name
  39.83,                                  !- Latitude {deg}
  -104.65,                                !- Longitude {deg}
  -7,                                     !- Time Zone {hr}
  1650,                                   !- Elevation {m}
  ;                                       !- Terrain

OS:SimulationControl,
  {24165b09-9e7d-4c99-b191-50839e297983}, !- Handle
  ,                                       !- Do Zone Sizing Calculation
  ,                                       !- Do System Sizing Calculation
  ,                                       !- Do Plant Sizing Calculation
  No;                                     !- Run Simulation for Sizing Periods

OS:Sizing:Parameters,
  {db44dd0a-75df-4cc8-afa9-85199bfff4e2}, !- Handle
  1.25,                                   !- Heating Sizing Factor
  1.15;                                   !- Cooling Sizing Factor

OS:Timestep,
  {e0ce4f99-0df2-4b45-bb01-121ac566aae0}, !- Handle
  6;                                      !- Number of Timesteps per Hour

OS:ShadowCalculation,
  {76281f69-bb9c-48ab-a579-ed698c941cfb}, !- Handle
  20,                                     !- Calculation Frequency
  200;                                    !- Maximum Figures in Shadow Overlap Calculations

OS:HeatBalanceAlgorithm,
  {f047bf62-f6fb-4cca-beb9-96d7538064fd}, !- Handle
  MoisturePenetrationDepthConductionTransferFunction, !- Algorithm
  200;                                    !- Surface Temperature Upper Limit {C}

OS:RunPeriod,
  {c200c0c8-713a-4d1a-8d22-83f5fd5c51a5}, !- Handle
  Run Period 1,                           !- Name
  1,                                      !- Begin Month
  1,                                      !- Begin Day of Month
  12,                                     !- End Month
  31,                                     !- End Day of Month
  ,                                       !- Use Weather File Holidays and Special Days
  ,                                       !- Use Weather File Daylight Saving Period
  ,                                       !- Apply Weekend Holiday Rule
  ,                                       !- Use Weather File Rain Indicators
  ,                                       !- Use Weather File Snow Indicators
  ;                                       !- Number of Times Runperiod to be Repeated

OS:LifeCycleCost:Parameters,
  {5edffc35-faa2-4772-af43-3410d71ff1d5}, !- Handle
  ,                                       !- Analysis Type
  ,                                       !- Discounting Convention
  ,                                       !- Inflation Approach
  ,                                       !- Real Discount Rate
  ,                                       !- Nominal Discount Rate
  ,                                       !- Inflation
  ,                                       !- Base Date Month
  ,                                       !- Base Date Year
  ,                                       !- Service Date Month
  ,                                       !- Service Date Year
  ;                                       !- Length of Study Period in Years

OS:SurfaceConvectionAlgorithm:Outside,
  {84c1ddbb-cf05-41ad-ac96-3a5ae9aff715}, !- Handle
  DOE-2;                                  !- Algorithm

OS:SurfaceConvectionAlgorithm:Inside,
  {ff33c943-14d0-4255-886a-6972365abdca}, !- Handle
  TARP;                                   !- Algorithm

OS:ZoneCapacitanceMultiplier:ResearchSpecial,
  {a7b8c1f1-833d-4153-91a3-105d1b32931c}, !- Handle
  ,                                       !- Temperature Capacity Multiplier
  1,                                      !- Humidity Capacity Multiplier
  ;                                       !- Carbon Dioxide Capacity Multiplier

OS:ThermalZone,
  {f31004da-0c98-4f72-9899-ff5cc1949aa4}, !- Handle
  living zone,                            !- Name
  ,                                       !- Multiplier
  ,                                       !- Ceiling Height {m}
  ,                                       !- Volume {m3}
  ,                                       !- Floor Area {m2}
  ,                                       !- Zone Inside Convection Algorithm
  ,                                       !- Zone Outside Convection Algorithm
  ,                                       !- Zone Conditioning Equipment List Name
  {93e9df49-7282-4469-afea-74b2e4f8cbb3}, !- Zone Air Inlet Port List
  {78102bee-2d2d-4637-aa57-aa95c0440383}, !- Zone Air Exhaust Port List
  {9bbbce2a-b51a-4f6d-8fac-9b7503b7cc15}, !- Zone Air Node Name
  {30a5874f-43f4-460d-913f-6bdb1bdc4b3b}, !- Zone Return Air Port List
  ,                                       !- Primary Daylighting Control Name
  ,                                       !- Fraction of Zone Controlled by Primary Daylighting Control
  ,                                       !- Secondary Daylighting Control Name
  ,                                       !- Fraction of Zone Controlled by Secondary Daylighting Control
  ,                                       !- Illuminance Map Name
  ,                                       !- Group Rendering Name
  ,                                       !- Thermostat Name
  No;                                     !- Use Ideal Air Loads

OS:Node,
  {382fe9da-a7a3-4701-938b-b9c29eec0380}, !- Handle
  Node 1,                                 !- Name
  {9bbbce2a-b51a-4f6d-8fac-9b7503b7cc15}, !- Inlet Port
  ;                                       !- Outlet Port

OS:Connection,
  {9bbbce2a-b51a-4f6d-8fac-9b7503b7cc15}, !- Handle
  {6262d777-f883-4f16-ad41-00a0e1853997}, !- Name
  {f31004da-0c98-4f72-9899-ff5cc1949aa4}, !- Source Object
  11,                                     !- Outlet Port
  {382fe9da-a7a3-4701-938b-b9c29eec0380}, !- Target Object
  2;                                      !- Inlet Port

OS:PortList,
  {93e9df49-7282-4469-afea-74b2e4f8cbb3}, !- Handle
  {81b50796-bb04-4905-9501-c0cea03eeb54}, !- Name
  {f31004da-0c98-4f72-9899-ff5cc1949aa4}; !- HVAC Component

OS:PortList,
  {78102bee-2d2d-4637-aa57-aa95c0440383}, !- Handle
  {0ece82f6-55e2-4239-afbb-a63223582229}, !- Name
  {f31004da-0c98-4f72-9899-ff5cc1949aa4}; !- HVAC Component

OS:PortList,
  {30a5874f-43f4-460d-913f-6bdb1bdc4b3b}, !- Handle
  {180deb38-c474-499c-b826-4f6166fec822}, !- Name
  {f31004da-0c98-4f72-9899-ff5cc1949aa4}; !- HVAC Component

OS:Sizing:Zone,
  {9d46d210-5983-4f9a-a127-c83bfd98038e}, !- Handle
  {f31004da-0c98-4f72-9899-ff5cc1949aa4}, !- Zone or ZoneList Name
  SupplyAirTemperature,                   !- Zone Cooling Design Supply Air Temperature Input Method
  14,                                     !- Zone Cooling Design Supply Air Temperature {C}
  11.11,                                  !- Zone Cooling Design Supply Air Temperature Difference {deltaC}
  SupplyAirTemperature,                   !- Zone Heating Design Supply Air Temperature Input Method
  40,                                     !- Zone Heating Design Supply Air Temperature {C}
  11.11,                                  !- Zone Heating Design Supply Air Temperature Difference {deltaC}
  0.0085,                                 !- Zone Cooling Design Supply Air Humidity Ratio {kg-H2O/kg-air}
  0.008,                                  !- Zone Heating Design Supply Air Humidity Ratio {kg-H2O/kg-air}
  ,                                       !- Zone Heating Sizing Factor
  ,                                       !- Zone Cooling Sizing Factor
  DesignDay,                              !- Cooling Design Air Flow Method
  ,                                       !- Cooling Design Air Flow Rate {m3/s}
  ,                                       !- Cooling Minimum Air Flow per Zone Floor Area {m3/s-m2}
  ,                                       !- Cooling Minimum Air Flow {m3/s}
  ,                                       !- Cooling Minimum Air Flow Fraction
  DesignDay,                              !- Heating Design Air Flow Method
  ,                                       !- Heating Design Air Flow Rate {m3/s}
  ,                                       !- Heating Maximum Air Flow per Zone Floor Area {m3/s-m2}
  ,                                       !- Heating Maximum Air Flow {m3/s}
  ,                                       !- Heating Maximum Air Flow Fraction
  ,                                       !- Design Zone Air Distribution Effectiveness in Cooling Mode
  ,                                       !- Design Zone Air Distribution Effectiveness in Heating Mode
  No,                                     !- Account for Dedicated Outdoor Air System
  NeutralSupplyAir,                       !- Dedicated Outdoor Air System Control Strategy
  autosize,                               !- Dedicated Outdoor Air Low Setpoint Temperature for Design {C}
  autosize;                               !- Dedicated Outdoor Air High Setpoint Temperature for Design {C}

OS:ZoneHVAC:EquipmentList,
  {8c0208c6-afe6-4e61-9c73-5303ec63cc18}, !- Handle
  Zone HVAC Equipment List 1,             !- Name
  {f31004da-0c98-4f72-9899-ff5cc1949aa4}; !- Thermal Zone

OS:Space,
  {38cd7020-c4cb-4012-b2e3-c777779bc05f}, !- Handle
  living space,                           !- Name
  {a23b76b0-4891-4e8d-a273-f094bf4e000c}, !- Space Type Name
  ,                                       !- Default Construction Set Name
  ,                                       !- Default Schedule Set Name
  ,                                       !- Direction of Relative North {deg}
  ,                                       !- X Origin {m}
  ,                                       !- Y Origin {m}
  ,                                       !- Z Origin {m}
  ,                                       !- Building Story Name
  {f31004da-0c98-4f72-9899-ff5cc1949aa4}, !- Thermal Zone Name
  ,                                       !- Part of Total Floor Area
  ,                                       !- Design Specification Outdoor Air Object Name
  {bdff9ba7-78c2-4c41-8c50-1603ba067b4e}; !- Building Unit Name

OS:Surface,
  {2d8260a6-2dba-495f-bd26-23c61461aa9c}, !- Handle
  Surface 1,                              !- Name
  Floor,                                  !- Surface Type
  ,                                       !- Construction Name
  {38cd7020-c4cb-4012-b2e3-c777779bc05f}, !- Space Name
  Foundation,                             !- Outside Boundary Condition
  ,                                       !- Outside Boundary Condition Object
  NoSun,                                  !- Sun Exposure
  NoWind,                                 !- Wind Exposure
  ,                                       !- View Factor to Ground
  ,                                       !- Number of Vertices
  0, -12.9315688143396, 0,                !- X,Y,Z Vertex 1 {m}
  0, 0, 0,                                !- X,Y,Z Vertex 2 {m}
  6.46578440716979, 0, 0,                 !- X,Y,Z Vertex 3 {m}
  6.46578440716979, -12.9315688143396, 0; !- X,Y,Z Vertex 4 {m}

OS:Surface,
  {1bd64fa6-24ad-4583-800b-d8b9fd7011ff}, !- Handle
  Surface 2,                              !- Name
  Wall,                                   !- Surface Type
  ,                                       !- Construction Name
  {38cd7020-c4cb-4012-b2e3-c777779bc05f}, !- Space Name
  Outdoors,                               !- Outside Boundary Condition
  ,                                       !- Outside Boundary Condition Object
  SunExposed,                             !- Sun Exposure
  WindExposed,                            !- Wind Exposure
  ,                                       !- View Factor to Ground
  ,                                       !- Number of Vertices
  0, 0, 2.4384,                           !- X,Y,Z Vertex 1 {m}
  0, 0, 0,                                !- X,Y,Z Vertex 2 {m}
  0, -12.9315688143396, 0,                !- X,Y,Z Vertex 3 {m}
  0, -12.9315688143396, 2.4384;           !- X,Y,Z Vertex 4 {m}

OS:Surface,
  {a842d21d-2214-4c0f-8535-fceff2872286}, !- Handle
  Surface 3,                              !- Name
  Wall,                                   !- Surface Type
  ,                                       !- Construction Name
  {38cd7020-c4cb-4012-b2e3-c777779bc05f}, !- Space Name
  Adiabatic,                              !- Outside Boundary Condition
  ,                                       !- Outside Boundary Condition Object
  NoSun,                                  !- Sun Exposure
  NoWind,                                 !- Wind Exposure
  ,                                       !- View Factor to Ground
  ,                                       !- Number of Vertices
  6.46578440716979, 0, 2.4384,            !- X,Y,Z Vertex 1 {m}
  6.46578440716979, 0, 0,                 !- X,Y,Z Vertex 2 {m}
  0, 0, 0,                                !- X,Y,Z Vertex 3 {m}
  0, 0, 2.4384;                           !- X,Y,Z Vertex 4 {m}

OS:Surface,
  {e0988c30-c254-42b9-9317-89d7e510d4ce}, !- Handle
  Surface 4,                              !- Name
  Wall,                                   !- Surface Type
  ,                                       !- Construction Name
  {38cd7020-c4cb-4012-b2e3-c777779bc05f}, !- Space Name
  Surface,                                !- Outside Boundary Condition
  {b1634e3a-3fa1-42a6-8395-720c7dd84484}, !- Outside Boundary Condition Object
  NoSun,                                  !- Sun Exposure
  NoWind,                                 !- Wind Exposure
  ,                                       !- View Factor to Ground
  ,                                       !- Number of Vertices
  6.46578440716979, -12.9315688143396, 2.4384, !- X,Y,Z Vertex 1 {m}
  6.46578440716979, -12.9315688143396, 0, !- X,Y,Z Vertex 2 {m}
  6.46578440716979, 0, 0,                 !- X,Y,Z Vertex 3 {m}
  6.46578440716979, 0, 2.4384;            !- X,Y,Z Vertex 4 {m}

OS:Surface,
  {0e8e8f3d-9a44-4451-a57b-42df557d5564}, !- Handle
  Surface 5,                              !- Name
  Wall,                                   !- Surface Type
  ,                                       !- Construction Name
  {38cd7020-c4cb-4012-b2e3-c777779bc05f}, !- Space Name
  Outdoors,                               !- Outside Boundary Condition
  ,                                       !- Outside Boundary Condition Object
  SunExposed,                             !- Sun Exposure
  WindExposed,                            !- Wind Exposure
  ,                                       !- View Factor to Ground
  ,                                       !- Number of Vertices
  0, -12.9315688143396, 2.4384,           !- X,Y,Z Vertex 1 {m}
  0, -12.9315688143396, 0,                !- X,Y,Z Vertex 2 {m}
  6.46578440716979, -12.9315688143396, 0, !- X,Y,Z Vertex 3 {m}
  6.46578440716979, -12.9315688143396, 2.4384; !- X,Y,Z Vertex 4 {m}

OS:Surface,
  {f1b16930-d39c-49c9-8df9-471ef62fb9b1}, !- Handle
  Surface 6,                              !- Name
  RoofCeiling,                            !- Surface Type
  ,                                       !- Construction Name
  {38cd7020-c4cb-4012-b2e3-c777779bc05f}, !- Space Name
  Outdoors,                               !- Outside Boundary Condition
  ,                                       !- Outside Boundary Condition Object
  SunExposed,                             !- Sun Exposure
  WindExposed,                            !- Wind Exposure
  ,                                       !- View Factor to Ground
  ,                                       !- Number of Vertices
  6.46578440716979, -12.9315688143396, 2.4384, !- X,Y,Z Vertex 1 {m}
  6.46578440716979, 0, 2.4384,            !- X,Y,Z Vertex 2 {m}
  0, 0, 2.4384,                           !- X,Y,Z Vertex 3 {m}
  0, -12.9315688143396, 2.4384;           !- X,Y,Z Vertex 4 {m}

OS:SpaceType,
  {a23b76b0-4891-4e8d-a273-f094bf4e000c}, !- Handle
  Space Type 1,                           !- Name
  ,                                       !- Default Construction Set Name
  ,                                       !- Default Schedule Set Name
  ,                                       !- Group Rendering Name
  ,                                       !- Design Specification Outdoor Air Object Name
  ,                                       !- Standards Template
  ,                                       !- Standards Building Type
  living;                                 !- Standards Space Type

OS:ThermalZone,
  {427e01bc-5562-4d53-b6d1-5cf7819169a4}, !- Handle
  living zone|unit 2,                     !- Name
  ,                                       !- Multiplier
  ,                                       !- Ceiling Height {m}
  ,                                       !- Volume {m3}
  ,                                       !- Floor Area {m2}
  ,                                       !- Zone Inside Convection Algorithm
  ,                                       !- Zone Outside Convection Algorithm
  ,                                       !- Zone Conditioning Equipment List Name
  {4373439e-4bf7-4582-98f0-e7a1283a38d4}, !- Zone Air Inlet Port List
  {9c443f99-b921-4e2d-9735-a27f199dff09}, !- Zone Air Exhaust Port List
  {174f41fa-72da-4aa2-9c32-7eb088889d4c}, !- Zone Air Node Name
  {d3f94d5f-851a-4c7b-a74a-886cd4a74ff5}, !- Zone Return Air Port List
  ,                                       !- Primary Daylighting Control Name
  ,                                       !- Fraction of Zone Controlled by Primary Daylighting Control
  ,                                       !- Secondary Daylighting Control Name
  ,                                       !- Fraction of Zone Controlled by Secondary Daylighting Control
  ,                                       !- Illuminance Map Name
  ,                                       !- Group Rendering Name
  ,                                       !- Thermostat Name
  No;                                     !- Use Ideal Air Loads

OS:Node,
  {ac83cc88-aa9a-4318-84af-af902e01edfe}, !- Handle
  Node 2,                                 !- Name
  {174f41fa-72da-4aa2-9c32-7eb088889d4c}, !- Inlet Port
  ;                                       !- Outlet Port

OS:Connection,
  {174f41fa-72da-4aa2-9c32-7eb088889d4c}, !- Handle
  {3edf0126-367b-4eee-8eb9-23bd2c2acfc3}, !- Name
  {427e01bc-5562-4d53-b6d1-5cf7819169a4}, !- Source Object
  11,                                     !- Outlet Port
  {ac83cc88-aa9a-4318-84af-af902e01edfe}, !- Target Object
  2;                                      !- Inlet Port

OS:PortList,
  {4373439e-4bf7-4582-98f0-e7a1283a38d4}, !- Handle
  {cdcf3bb1-424e-4e5c-b0bd-44e5b1d735a6}, !- Name
  {427e01bc-5562-4d53-b6d1-5cf7819169a4}; !- HVAC Component

OS:PortList,
  {9c443f99-b921-4e2d-9735-a27f199dff09}, !- Handle
  {1a19ed07-9a98-43f3-ba70-bfd8c31c85e0}, !- Name
  {427e01bc-5562-4d53-b6d1-5cf7819169a4}; !- HVAC Component

OS:PortList,
  {d3f94d5f-851a-4c7b-a74a-886cd4a74ff5}, !- Handle
  {7fffb6f5-d2d4-4a99-b19d-5bb3a1ca60ec}, !- Name
  {427e01bc-5562-4d53-b6d1-5cf7819169a4}; !- HVAC Component

OS:Sizing:Zone,
  {c92cbc76-742e-4f3d-aaa2-60c4bd925f57}, !- Handle
  {427e01bc-5562-4d53-b6d1-5cf7819169a4}, !- Zone or ZoneList Name
  SupplyAirTemperature,                   !- Zone Cooling Design Supply Air Temperature Input Method
  14,                                     !- Zone Cooling Design Supply Air Temperature {C}
  11.11,                                  !- Zone Cooling Design Supply Air Temperature Difference {deltaC}
  SupplyAirTemperature,                   !- Zone Heating Design Supply Air Temperature Input Method
  40,                                     !- Zone Heating Design Supply Air Temperature {C}
  11.11,                                  !- Zone Heating Design Supply Air Temperature Difference {deltaC}
  0.0085,                                 !- Zone Cooling Design Supply Air Humidity Ratio {kg-H2O/kg-air}
  0.008,                                  !- Zone Heating Design Supply Air Humidity Ratio {kg-H2O/kg-air}
  ,                                       !- Zone Heating Sizing Factor
  ,                                       !- Zone Cooling Sizing Factor
  DesignDay,                              !- Cooling Design Air Flow Method
  ,                                       !- Cooling Design Air Flow Rate {m3/s}
  ,                                       !- Cooling Minimum Air Flow per Zone Floor Area {m3/s-m2}
  ,                                       !- Cooling Minimum Air Flow {m3/s}
  ,                                       !- Cooling Minimum Air Flow Fraction
  DesignDay,                              !- Heating Design Air Flow Method
  ,                                       !- Heating Design Air Flow Rate {m3/s}
  ,                                       !- Heating Maximum Air Flow per Zone Floor Area {m3/s-m2}
  ,                                       !- Heating Maximum Air Flow {m3/s}
  ,                                       !- Heating Maximum Air Flow Fraction
  ,                                       !- Design Zone Air Distribution Effectiveness in Cooling Mode
  ,                                       !- Design Zone Air Distribution Effectiveness in Heating Mode
  No,                                     !- Account for Dedicated Outdoor Air System
  NeutralSupplyAir,                       !- Dedicated Outdoor Air System Control Strategy
  autosize,                               !- Dedicated Outdoor Air Low Setpoint Temperature for Design {C}
  autosize;                               !- Dedicated Outdoor Air High Setpoint Temperature for Design {C}

OS:ZoneHVAC:EquipmentList,
  {2c33301b-d482-4cd7-b6f2-bafd5a93a01e}, !- Handle
  Zone HVAC Equipment List 2,             !- Name
  {427e01bc-5562-4d53-b6d1-5cf7819169a4}; !- Thermal Zone

OS:Space,
  {6ff78c82-2368-4d05-b3cd-7f115a9a5d87}, !- Handle
  living space|unit 2,                    !- Name
  {a23b76b0-4891-4e8d-a273-f094bf4e000c}, !- Space Type Name
  ,                                       !- Default Construction Set Name
  ,                                       !- Default Schedule Set Name
  ,                                       !- Direction of Relative North {deg}
  ,                                       !- X Origin {m}
  ,                                       !- Y Origin {m}
  ,                                       !- Z Origin {m}
  ,                                       !- Building Story Name
  {427e01bc-5562-4d53-b6d1-5cf7819169a4}, !- Thermal Zone Name
  ,                                       !- Part of Total Floor Area
  ,                                       !- Design Specification Outdoor Air Object Name
  {f7f19ea0-9185-40cc-a5bc-034cf1a91c84}; !- Building Unit Name

OS:Surface,
  {886dd184-adab-49d2-8120-4efbe04b0672}, !- Handle
  Surface 7,                              !- Name
  Floor,                                  !- Surface Type
  ,                                       !- Construction Name
  {6ff78c82-2368-4d05-b3cd-7f115a9a5d87}, !- Space Name
  Foundation,                             !- Outside Boundary Condition
  ,                                       !- Outside Boundary Condition Object
  NoSun,                                  !- Sun Exposure
  NoWind,                                 !- Wind Exposure
  ,                                       !- View Factor to Ground
  ,                                       !- Number of Vertices
  0, 3.048, 0,                            !- X,Y,Z Vertex 1 {m}
  0, 15.9795688143396, 0,                 !- X,Y,Z Vertex 2 {m}
  6.46578440716979, 15.9795688143396, 0,  !- X,Y,Z Vertex 3 {m}
  6.46578440716979, 3.048, 0;             !- X,Y,Z Vertex 4 {m}

OS:Surface,
  {a3940286-1ab5-483f-9d8f-e5c4c508ba98}, !- Handle
  Surface 8,                              !- Name
  Wall,                                   !- Surface Type
  ,                                       !- Construction Name
  {6ff78c82-2368-4d05-b3cd-7f115a9a5d87}, !- Space Name
  Outdoors,                               !- Outside Boundary Condition
  ,                                       !- Outside Boundary Condition Object
  SunExposed,                             !- Sun Exposure
  WindExposed,                            !- Wind Exposure
  ,                                       !- View Factor to Ground
  ,                                       !- Number of Vertices
  0, 15.9795688143396, 2.4384,            !- X,Y,Z Vertex 1 {m}
  0, 15.9795688143396, 0,                 !- X,Y,Z Vertex 2 {m}
  0, 3.048, 0,                            !- X,Y,Z Vertex 3 {m}
  0, 3.048, 2.4384;                       !- X,Y,Z Vertex 4 {m}

OS:Surface,
  {bdc2db0b-20b3-4ed2-9bb2-ad715df7a322}, !- Handle
  Surface 9,                              !- Name
  Wall,                                   !- Surface Type
  ,                                       !- Construction Name
  {6ff78c82-2368-4d05-b3cd-7f115a9a5d87}, !- Space Name
  Outdoors,                               !- Outside Boundary Condition
  ,                                       !- Outside Boundary Condition Object
  SunExposed,                             !- Sun Exposure
  WindExposed,                            !- Wind Exposure
  ,                                       !- View Factor to Ground
  ,                                       !- Number of Vertices
  6.46578440716979, 15.9795688143396, 2.4384, !- X,Y,Z Vertex 1 {m}
  6.46578440716979, 15.9795688143396, 0,  !- X,Y,Z Vertex 2 {m}
  0, 15.9795688143396, 0,                 !- X,Y,Z Vertex 3 {m}
  0, 15.9795688143396, 2.4384;            !- X,Y,Z Vertex 4 {m}

OS:Surface,
  {e5a69ccf-54f3-4e77-b8c1-15f96cc1e3e8}, !- Handle
  Surface 10,                             !- Name
  Wall,                                   !- Surface Type
  ,                                       !- Construction Name
  {6ff78c82-2368-4d05-b3cd-7f115a9a5d87}, !- Space Name
  Surface,                                !- Outside Boundary Condition
  {f7e81fb8-20b2-4d28-ac5a-f48a1699cc85}, !- Outside Boundary Condition Object
  NoSun,                                  !- Sun Exposure
  NoWind,                                 !- Wind Exposure
  ,                                       !- View Factor to Ground
  ,                                       !- Number of Vertices
  6.46578440716979, 3.048, 2.4384,        !- X,Y,Z Vertex 1 {m}
  6.46578440716979, 3.048, 0,             !- X,Y,Z Vertex 2 {m}
  6.46578440716979, 15.9795688143396, 0,  !- X,Y,Z Vertex 3 {m}
  6.46578440716979, 15.9795688143396, 2.4384; !- X,Y,Z Vertex 4 {m}

OS:Surface,
  {a6d0234e-22c2-4b7c-872a-321a2100c150}, !- Handle
  Surface 11,                             !- Name
  Wall,                                   !- Surface Type
  ,                                       !- Construction Name
  {6ff78c82-2368-4d05-b3cd-7f115a9a5d87}, !- Space Name
  Adiabatic,                              !- Outside Boundary Condition
  ,                                       !- Outside Boundary Condition Object
  NoSun,                                  !- Sun Exposure
  NoWind,                                 !- Wind Exposure
  ,                                       !- View Factor to Ground
  ,                                       !- Number of Vertices
  0, 3.048, 2.4384,                       !- X,Y,Z Vertex 1 {m}
  0, 3.048, 0,                            !- X,Y,Z Vertex 2 {m}
  6.46578440716979, 3.048, 0,             !- X,Y,Z Vertex 3 {m}
  6.46578440716979, 3.048, 2.4384;        !- X,Y,Z Vertex 4 {m}

OS:Surface,
  {6924b498-8e33-4d7d-bfcc-034e2d453008}, !- Handle
  Surface 12,                             !- Name
  RoofCeiling,                            !- Surface Type
  ,                                       !- Construction Name
  {6ff78c82-2368-4d05-b3cd-7f115a9a5d87}, !- Space Name
  Outdoors,                               !- Outside Boundary Condition
  ,                                       !- Outside Boundary Condition Object
  SunExposed,                             !- Sun Exposure
  WindExposed,                            !- Wind Exposure
  ,                                       !- View Factor to Ground
  ,                                       !- Number of Vertices
  6.46578440716979, 3.048, 2.4384,        !- X,Y,Z Vertex 1 {m}
  6.46578440716979, 15.9795688143396, 2.4384, !- X,Y,Z Vertex 2 {m}
  0, 15.9795688143396, 2.4384,            !- X,Y,Z Vertex 3 {m}
  0, 3.048, 2.4384;                       !- X,Y,Z Vertex 4 {m}

OS:ThermalZone,
  {bf584023-4dda-4946-8f9a-fb34396c78f3}, !- Handle
  living zone|unit 3,                     !- Name
  ,                                       !- Multiplier
  ,                                       !- Ceiling Height {m}
  ,                                       !- Volume {m3}
  ,                                       !- Floor Area {m2}
  ,                                       !- Zone Inside Convection Algorithm