!- NOTE: Auto-generated from /test/osw_files/SFA_4units_1story_FB_UA_Denver.osw

OS:Version,
  {e36fa7d0-2363-4cf9-8596-a0c5f94b6a51}, !- Handle
  2.6.0;                                  !- Version Identifier

OS:Building,
  {dc7a2dab-b10a-420e-8da1-c8135dbae461}, !- Handle
  Building 1,                             !- Name
  ,                                       !- Building Sector Type
  0,                                      !- North Axis {deg}
  ,                                       !- Nominal Floor to Floor Height {m}
  ,                                       !- Space Type Name
  ,                                       !- Default Construction Set Name
  ,                                       !- Default Schedule Set Name
  2,                                      !- Standards Number of Stories
  1,                                      !- Standards Number of Above Ground Stories
  singlefamilyttached,                    !- Standards Building Type
  4;                                      !- Standards Number of Living Units

OS:Facility,
  {bcc0c40b-81f4-4e4c-bcb6-d159fba139fc}; !- Handle

OS:Site,
  {df780c1b-140d-408f-b681-2241f95a08ba}, !- Handle
  Denver Intl Ap_CO_USA,                  !- Name
  39.83,                                  !- Latitude {deg}
  -104.65,                                !- Longitude {deg}
  -7,                                     !- Time Zone {hr}
  1650,                                   !- Elevation {m}
  ;                                       !- Terrain

OS:SimulationControl,
  {04f07852-83d6-44c6-92d4-e55496563be7}, !- Handle
  ,                                       !- Do Zone Sizing Calculation
  ,                                       !- Do System Sizing Calculation
  ,                                       !- Do Plant Sizing Calculation
  No;                                     !- Run Simulation for Sizing Periods

OS:Sizing:Parameters,
  {1bfd1763-e9b7-426a-9069-1248683828b3}, !- Handle
  1.25,                                   !- Heating Sizing Factor
  1.15;                                   !- Cooling Sizing Factor

OS:Timestep,
  {5bf9ef0d-417f-4bc2-8774-f70507b61016}, !- Handle
  6;                                      !- Number of Timesteps per Hour

OS:ShadowCalculation,
  {39313c23-e551-40db-9d22-7a08eb76cb55}, !- Handle
  20,                                     !- Calculation Frequency
  200;                                    !- Maximum Figures in Shadow Overlap Calculations

OS:HeatBalanceAlgorithm,
  {c080533d-4bff-4b89-8a0c-6766e7e0236f}, !- Handle
  ConductionTransferFunction,             !- Algorithm
  200;                                    !- Surface Temperature Upper Limit {C}

OS:RunPeriod,
  {b9f1d963-4cd6-4d99-9145-f9b93ea3815b}, !- Handle
  Run Period 1,                           !- Name
  1,                                      !- Begin Month
  1,                                      !- Begin Day of Month
  12,                                     !- End Month
  31,                                     !- End Day of Month
  ,                                       !- Use Weather File Holidays and Special Days
  ,                                       !- Use Weather File Daylight Saving Period
  ,                                       !- Apply Weekend Holiday Rule
  ,                                       !- Use Weather File Rain Indicators
  ,                                       !- Use Weather File Snow Indicators
  ;                                       !- Number of Times Runperiod to be Repeated

OS:LifeCycleCost:Parameters,
  {ecbebe57-fb7b-4cfa-adf8-6ba1efb9e39d}, !- Handle
  ,                                       !- Analysis Type
  ,                                       !- Discounting Convention
  ,                                       !- Inflation Approach
  ,                                       !- Real Discount Rate
  ,                                       !- Nominal Discount Rate
  ,                                       !- Inflation
  ,                                       !- Base Date Month
  ,                                       !- Base Date Year
  ,                                       !- Service Date Month
  ,                                       !- Service Date Year
  ;                                       !- Length of Study Period in Years

OS:ThermalZone,
  {b6bb6c14-0dbe-4105-ba85-ef07c4d0ce09}, !- Handle
  living zone,                            !- Name
  ,                                       !- Multiplier
  ,                                       !- Ceiling Height {m}
  ,                                       !- Volume {m3}
  ,                                       !- Floor Area {m2}
  ,                                       !- Zone Inside Convection Algorithm
  ,                                       !- Zone Outside Convection Algorithm
  ,                                       !- Zone Conditioning Equipment List Name
  {5789ad87-75c1-4b19-b597-c2134cd26fce}, !- Zone Air Inlet Port List
  {7202e2be-16df-4c23-8739-d55b72c20b2f}, !- Zone Air Exhaust Port List
  {49f03ba7-67b8-4d39-af50-abf95e65aade}, !- Zone Air Node Name
  ,                                       !- Zone Return Air Node Name
  ,                                       !- Primary Daylighting Control Name
  ,                                       !- Fraction of Zone Controlled by Primary Daylighting Control
  ,                                       !- Secondary Daylighting Control Name
  ,                                       !- Fraction of Zone Controlled by Secondary Daylighting Control
  ,                                       !- Illuminance Map Name
  ,                                       !- Group Rendering Name
  ,                                       !- Thermostat Name
  No;                                     !- Use Ideal Air Loads

OS:Node,
  {fe0a1dba-6449-4402-af5f-69b1eab2e476}, !- Handle
  Node 1,                                 !- Name
  {49f03ba7-67b8-4d39-af50-abf95e65aade}, !- Inlet Port
  ;                                       !- Outlet Port

OS:Connection,
  {49f03ba7-67b8-4d39-af50-abf95e65aade}, !- Handle
  {d69c000d-b2fc-4920-b7b5-c02ab26e3a34}, !- Name
  {b6bb6c14-0dbe-4105-ba85-ef07c4d0ce09}, !- Source Object
  11,                                     !- Outlet Port
  {fe0a1dba-6449-4402-af5f-69b1eab2e476}, !- Target Object
  2;                                      !- Inlet Port

OS:PortList,
  {5789ad87-75c1-4b19-b597-c2134cd26fce}, !- Handle
  {bd58437b-c4c5-4c6d-9f68-605164fa84bf}, !- Name
  {b6bb6c14-0dbe-4105-ba85-ef07c4d0ce09}; !- HVAC Component

OS:PortList,
  {7202e2be-16df-4c23-8739-d55b72c20b2f}, !- Handle
  {761f9951-3f42-49d1-9206-5ec8fc00ab9f}, !- Name
  {b6bb6c14-0dbe-4105-ba85-ef07c4d0ce09}; !- HVAC Component

OS:Sizing:Zone,
  {6f3b74e4-183c-4706-aa91-1e045ce09617}, !- Handle
  {b6bb6c14-0dbe-4105-ba85-ef07c4d0ce09}, !- Zone or ZoneList Name
  SupplyAirTemperature,                   !- Zone Cooling Design Supply Air Temperature Input Method
  14,                                     !- Zone Cooling Design Supply Air Temperature {C}
  11.11,                                  !- Zone Cooling Design Supply Air Temperature Difference {deltaC}
  SupplyAirTemperature,                   !- Zone Heating Design Supply Air Temperature Input Method
  40,                                     !- Zone Heating Design Supply Air Temperature {C}
  11.11,                                  !- Zone Heating Design Supply Air Temperature Difference {deltaC}
  0.0085,                                 !- Zone Cooling Design Supply Air Humidity Ratio {kg-H2O/kg-air}
  0.008,                                  !- Zone Heating Design Supply Air Humidity Ratio {kg-H2O/kg-air}
  ,                                       !- Zone Heating Sizing Factor
  ,                                       !- Zone Cooling Sizing Factor
  DesignDay,                              !- Cooling Design Air Flow Method
  ,                                       !- Cooling Design Air Flow Rate {m3/s}
  ,                                       !- Cooling Minimum Air Flow per Zone Floor Area {m3/s-m2}
  ,                                       !- Cooling Minimum Air Flow {m3/s}
  ,                                       !- Cooling Minimum Air Flow Fraction
  DesignDay,                              !- Heating Design Air Flow Method
  ,                                       !- Heating Design Air Flow Rate {m3/s}
  ,                                       !- Heating Maximum Air Flow per Zone Floor Area {m3/s-m2}
  ,                                       !- Heating Maximum Air Flow {m3/s}
  ,                                       !- Heating Maximum Air Flow Fraction
  ,                                       !- Design Zone Air Distribution Effectiveness in Cooling Mode
  ,                                       !- Design Zone Air Distribution Effectiveness in Heating Mode
  No,                                     !- Account for Dedicated Outdoor Air System
  NeutralSupplyAir,                       !- Dedicated Outdoor Air System Control Strategy
  autosize,                               !- Dedicated Outdoor Air Low Setpoint Temperature for Design {C}
  autosize;                               !- Dedicated Outdoor Air High Setpoint Temperature for Design {C}

OS:ZoneHVAC:EquipmentList,
  {44821f83-ce6b-49cf-8852-509dd9c84cb5}, !- Handle
  Zone HVAC Equipment List 1,             !- Name
  {b6bb6c14-0dbe-4105-ba85-ef07c4d0ce09}; !- Thermal Zone

OS:Space,
  {b060ccbf-b39e-4ee5-b5f2-92ec3c645e24}, !- Handle
  living space,                           !- Name
  {88642c8c-9577-41ab-b012-4ee9421e325e}, !- Space Type Name
  ,                                       !- Default Construction Set Name
  ,                                       !- Default Schedule Set Name
  ,                                       !- Direction of Relative North {deg}
  ,                                       !- X Origin {m}
  ,                                       !- Y Origin {m}
  ,                                       !- Z Origin {m}
  ,                                       !- Building Story Name
  {b6bb6c14-0dbe-4105-ba85-ef07c4d0ce09}, !- Thermal Zone Name
  ,                                       !- Part of Total Floor Area
  ,                                       !- Design Specification Outdoor Air Object Name
  {48d5612d-debc-41cd-97ea-9f1b7f2d60cf}; !- Building Unit Name

OS:Surface,
  {1c77f57e-b1c4-42f0-bc4c-27d58bd4d9c3}, !- Handle
  Surface 1,                              !- Name
  Floor,                                  !- Surface Type
  ,                                       !- Construction Name
  {b060ccbf-b39e-4ee5-b5f2-92ec3c645e24}, !- Space Name
  Surface,                                !- Outside Boundary Condition
  {890d0de0-daaa-4a19-90e8-77676e0afc9d}, !- Outside Boundary Condition Object
  NoSun,                                  !- Sun Exposure
  NoWind,                                 !- Wind Exposure
  ,                                       !- View Factor to Ground
  ,                                       !- Number of Vertices
  0, -9.144, 0,                           !- X,Y,Z Vertex 1 {m}
  0, 0, 0,                                !- X,Y,Z Vertex 2 {m}
  4.572, 0, 0,                            !- X,Y,Z Vertex 3 {m}
  4.572, -9.144, 0;                       !- X,Y,Z Vertex 4 {m}

OS:Surface,
  {058f153c-49a5-4045-a1f8-4949636ca60f}, !- Handle
  Surface 2,                              !- Name
  Wall,                                   !- Surface Type
  ,                                       !- Construction Name
  {b060ccbf-b39e-4ee5-b5f2-92ec3c645e24}, !- Space Name
  Outdoors,                               !- Outside Boundary Condition
  ,                                       !- Outside Boundary Condition Object
  SunExposed,                             !- Sun Exposure
  WindExposed,                            !- Wind Exposure
  ,                                       !- View Factor to Ground
  ,                                       !- Number of Vertices
  0, 0, 2.4384,                           !- X,Y,Z Vertex 1 {m}
  0, 0, 0,                                !- X,Y,Z Vertex 2 {m}
  0, -9.144, 0,                           !- X,Y,Z Vertex 3 {m}
  0, -9.144, 2.4384;                      !- X,Y,Z Vertex 4 {m}

OS:Surface,
  {643ca046-d75b-4aaf-bafb-d4a918388d60}, !- Handle
  Surface 3,                              !- Name
  Wall,                                   !- Surface Type
  ,                                       !- Construction Name
  {b060ccbf-b39e-4ee5-b5f2-92ec3c645e24}, !- Space Name
  Outdoors,                               !- Outside Boundary Condition
  ,                                       !- Outside Boundary Condition Object
  SunExposed,                             !- Sun Exposure
  WindExposed,                            !- Wind Exposure
  ,                                       !- View Factor to Ground
  ,                                       !- Number of Vertices
  4.572, 0, 2.4384,                       !- X,Y,Z Vertex 1 {m}
  4.572, 0, 0,                            !- X,Y,Z Vertex 2 {m}
  0, 0, 0,                                !- X,Y,Z Vertex 3 {m}
  0, 0, 2.4384;                           !- X,Y,Z Vertex 4 {m}

OS:Surface,
  {92880618-e869-49bf-af71-645f6c275015}, !- Handle
  Surface 4,                              !- Name
  Wall,                                   !- Surface Type
  ,                                       !- Construction Name
  {b060ccbf-b39e-4ee5-b5f2-92ec3c645e24}, !- Space Name
  Surface,                                !- Outside Boundary Condition
  {5b297521-ee67-4ff2-b153-8e9a03df1ce3}, !- Outside Boundary Condition Object
  NoSun,                                  !- Sun Exposure
  NoWind,                                 !- Wind Exposure
  ,                                       !- View Factor to Ground
  ,                                       !- Number of Vertices
  4.572, -9.144, 2.4384,                  !- X,Y,Z Vertex 1 {m}
  4.572, -9.144, 0,                       !- X,Y,Z Vertex 2 {m}
  4.572, 0, 0,                            !- X,Y,Z Vertex 3 {m}
  4.572, 0, 2.4384;                       !- X,Y,Z Vertex 4 {m}

OS:Surface,
  {7d0bb250-b9e5-4c63-8a2a-e8a4544d86b4}, !- Handle
  Surface 5,                              !- Name
  Wall,                                   !- Surface Type
  ,                                       !- Construction Name
  {b060ccbf-b39e-4ee5-b5f2-92ec3c645e24}, !- Space Name
  Outdoors,                               !- Outside Boundary Condition
  ,                                       !- Outside Boundary Condition Object
  SunExposed,                             !- Sun Exposure
  WindExposed,                            !- Wind Exposure
  ,                                       !- View Factor to Ground
  ,                                       !- Number of Vertices
  0, -9.144, 2.4384,                      !- X,Y,Z Vertex 1 {m}
  0, -9.144, 0,                           !- X,Y,Z Vertex 2 {m}
  4.572, -9.144, 0,                       !- X,Y,Z Vertex 3 {m}
  4.572, -9.144, 2.4384;                  !- X,Y,Z Vertex 4 {m}

OS:Surface,
  {27e0dfe1-057e-4063-9176-f50b3bc2c8fb}, !- Handle
  Surface 6,                              !- Name
  RoofCeiling,                            !- Surface Type
  ,                                       !- Construction Name
  {b060ccbf-b39e-4ee5-b5f2-92ec3c645e24}, !- Space Name
  Surface,                                !- Outside Boundary Condition
  {f8447063-c7ac-484f-8144-a0bfa3a21968}, !- Outside Boundary Condition Object
  NoSun,                                  !- Sun Exposure
  NoWind,                                 !- Wind Exposure
  ,                                       !- View Factor to Ground
  ,                                       !- Number of Vertices
  4.572, -9.144, 2.4384,                  !- X,Y,Z Vertex 1 {m}
  4.572, 0, 2.4384,                       !- X,Y,Z Vertex 2 {m}
  0, 0, 2.4384,                           !- X,Y,Z Vertex 3 {m}
  0, -9.144, 2.4384;                      !- X,Y,Z Vertex 4 {m}

OS:SpaceType,
  {88642c8c-9577-41ab-b012-4ee9421e325e}, !- Handle
  Space Type 1,                           !- Name
  ,                                       !- Default Construction Set Name
  ,                                       !- Default Schedule Set Name
  ,                                       !- Group Rendering Name
  ,                                       !- Design Specification Outdoor Air Object Name
  ,                                       !- Standards Building Type
  living;                                 !- Standards Space Type

OS:ThermalZone,
  {14f28727-4bcc-40c0-b594-f6be737f9cd5}, !- Handle
  living zone|unit 2,                     !- Name
  ,                                       !- Multiplier
  ,                                       !- Ceiling Height {m}
  ,                                       !- Volume {m3}
  ,                                       !- Floor Area {m2}
  ,                                       !- Zone Inside Convection Algorithm
  ,                                       !- Zone Outside Convection Algorithm
  ,                                       !- Zone Conditioning Equipment List Name
  {2fad741f-001f-4263-83a5-6289a94cdbce}, !- Zone Air Inlet Port List
  {2de4f698-a6b9-4952-9e38-a69a87d3e42b}, !- Zone Air Exhaust Port List
  {bfede569-51b9-4fb2-9ba0-a6ca43fe0ad5}, !- Zone Air Node Name
  ,                                       !- Zone Return Air Node Name
  ,                                       !- Primary Daylighting Control Name
  ,                                       !- Fraction of Zone Controlled by Primary Daylighting Control
  ,                                       !- Secondary Daylighting Control Name
  ,                                       !- Fraction of Zone Controlled by Secondary Daylighting Control
  ,                                       !- Illuminance Map Name
  ,                                       !- Group Rendering Name
  ,                                       !- Thermostat Name
  No;                                     !- Use Ideal Air Loads

OS:Node,
  {fab5fe60-9ec9-4fa2-bd91-0c0f57c2d243}, !- Handle
  Node 2,                                 !- Name
  {bfede569-51b9-4fb2-9ba0-a6ca43fe0ad5}, !- Inlet Port
  ;                                       !- Outlet Port

OS:Connection,
  {bfede569-51b9-4fb2-9ba0-a6ca43fe0ad5}, !- Handle
  {e068fe91-f662-4c81-a18a-aab5195ada05}, !- Name
  {14f28727-4bcc-40c0-b594-f6be737f9cd5}, !- Source Object
  11,                                     !- Outlet Port
  {fab5fe60-9ec9-4fa2-bd91-0c0f57c2d243}, !- Target Object
  2;                                      !- Inlet Port

OS:PortList,
  {2fad741f-001f-4263-83a5-6289a94cdbce}, !- Handle
  {be517915-ab58-440e-a1ea-070de124a2cb}, !- Name
  {14f28727-4bcc-40c0-b594-f6be737f9cd5}; !- HVAC Component

OS:PortList,
  {2de4f698-a6b9-4952-9e38-a69a87d3e42b}, !- Handle
  {92deb769-55ec-44cb-ade0-bb03eead164a}, !- Name
  {14f28727-4bcc-40c0-b594-f6be737f9cd5}; !- HVAC Component

OS:Sizing:Zone,
  {847b7069-7c37-45a1-be9c-8c1f1fbb5906}, !- Handle
  {14f28727-4bcc-40c0-b594-f6be737f9cd5}, !- Zone or ZoneList Name
  SupplyAirTemperature,                   !- Zone Cooling Design Supply Air Temperature Input Method
  14,                                     !- Zone Cooling Design Supply Air Temperature {C}
  11.11,                                  !- Zone Cooling Design Supply Air Temperature Difference {deltaC}
  SupplyAirTemperature,                   !- Zone Heating Design Supply Air Temperature Input Method
  40,                                     !- Zone Heating Design Supply Air Temperature {C}
  11.11,                                  !- Zone Heating Design Supply Air Temperature Difference {deltaC}
  0.0085,                                 !- Zone Cooling Design Supply Air Humidity Ratio {kg-H2O/kg-air}
  0.008,                                  !- Zone Heating Design Supply Air Humidity Ratio {kg-H2O/kg-air}
  ,                                       !- Zone Heating Sizing Factor
  ,                                       !- Zone Cooling Sizing Factor
  DesignDay,                              !- Cooling Design Air Flow Method
  ,                                       !- Cooling Design Air Flow Rate {m3/s}
  ,                                       !- Cooling Minimum Air Flow per Zone Floor Area {m3/s-m2}
  ,                                       !- Cooling Minimum Air Flow {m3/s}
  ,                                       !- Cooling Minimum Air Flow Fraction
  DesignDay,                              !- Heating Design Air Flow Method
  ,                                       !- Heating Design Air Flow Rate {m3/s}
  ,                                       !- Heating Maximum Air Flow per Zone Floor Area {m3/s-m2}
  ,                                       !- Heating Maximum Air Flow {m3/s}
  ,                                       !- Heating Maximum Air Flow Fraction
  ,                                       !- Design Zone Air Distribution Effectiveness in Cooling Mode
  ,                                       !- Design Zone Air Distribution Effectiveness in Heating Mode
  No,                                     !- Account for Dedicated Outdoor Air System
  NeutralSupplyAir,                       !- Dedicated Outdoor Air System Control Strategy
  autosize,                               !- Dedicated Outdoor Air Low Setpoint Temperature for Design {C}
  autosize;                               !- Dedicated Outdoor Air High Setpoint Temperature for Design {C}

OS:ZoneHVAC:EquipmentList,
  {3af67961-3667-40a9-a70a-4503fad32997}, !- Handle
  Zone HVAC Equipment List 2,             !- Name
  {14f28727-4bcc-40c0-b594-f6be737f9cd5}; !- Thermal Zone

OS:Space,
  {376a0db3-0d8e-42d4-94d9-12c3cfd6cd99}, !- Handle
  living space|unit 2|story 1,            !- Name
  {88642c8c-9577-41ab-b012-4ee9421e325e}, !- Space Type Name
  ,                                       !- Default Construction Set Name
  ,                                       !- Default Schedule Set Name
  -0,                                     !- Direction of Relative North {deg}
  0,                                      !- X Origin {m}
  0,                                      !- Y Origin {m}
  0,                                      !- Z Origin {m}
  ,                                       !- Building Story Name
  {14f28727-4bcc-40c0-b594-f6be737f9cd5}, !- Thermal Zone Name
  ,                                       !- Part of Total Floor Area
  ,                                       !- Design Specification Outdoor Air Object Name
  {77033ab1-3c57-48d6-8807-140cce202509}; !- Building Unit Name

OS:Surface,
  {04ec4327-6740-40b5-9cb9-00793bb17912}, !- Handle
  Surface 12,                             !- Name
  Wall,                                   !- Surface Type
  ,                                       !- Construction Name
  {376a0db3-0d8e-42d4-94d9-12c3cfd6cd99}, !- Space Name
  Outdoors,                               !- Outside Boundary Condition
  ,                                       !- Outside Boundary Condition Object
  SunExposed,                             !- Sun Exposure
  WindExposed,                            !- Wind Exposure
  ,                                       !- View Factor to Ground
  ,                                       !- Number of Vertices
  4.572, -9.144, 2.4384,                  !- X,Y,Z Vertex 1 {m}
  4.572, -9.144, 0,                       !- X,Y,Z Vertex 2 {m}
  9.144, -9.144, 0,                       !- X,Y,Z Vertex 3 {m}
  9.144, -9.144, 2.4384;                  !- X,Y,Z Vertex 4 {m}

OS:Surface,
  {342a86b7-a6a7-4798-9fb1-6887579acd8f}, !- Handle
  Surface 13,                             !- Name
  Floor,                                  !- Surface Type
  ,                                       !- Construction Name
  {376a0db3-0d8e-42d4-94d9-12c3cfd6cd99}, !- Space Name
  Surface,                                !- Outside Boundary Condition
  {b217b5d9-8292-4a40-a37f-c830f5062786}, !- Outside Boundary Condition Object
  NoSun,                                  !- Sun Exposure
  NoWind,                                 !- Wind Exposure
  ,                                       !- View Factor to Ground
  ,                                       !- Number of Vertices
  4.572, -9.144, 0,                       !- X,Y,Z Vertex 1 {m}
  4.572, 0, 0,                            !- X,Y,Z Vertex 2 {m}
  9.144, 0, 0,                            !- X,Y,Z Vertex 3 {m}
  9.144, -9.144, 0;                       !- X,Y,Z Vertex 4 {m}

OS:Surface,
  {05d4843a-0d2c-48a0-9e37-6ec721d1e703}, !- Handle
  Surface 14,                             !- Name
  Wall,                                   !- Surface Type
  ,                                       !- Construction Name
  {376a0db3-0d8e-42d4-94d9-12c3cfd6cd99}, !- Space Name
  Surface,                                !- Outside Boundary Condition
  {aa15fa3c-3a21-4fed-8215-7b2da254be7c}, !- Outside Boundary Condition Object
  NoSun,                                  !- Sun Exposure
  NoWind,                                 !- Wind Exposure
  ,                                       !- View Factor to Ground
  ,                                       !- Number of Vertices
  9.144, -9.144, 2.4384,                  !- X,Y,Z Vertex 1 {m}
  9.144, -9.144, 0,                       !- X,Y,Z Vertex 2 {m}
  9.144, 0, 0,                            !- X,Y,Z Vertex 3 {m}
  9.144, 0, 2.4384;                       !- X,Y,Z Vertex 4 {m}

OS:Surface,
  {270bb600-97ba-44d2-baa1-cdd1a60e0407}, !- Handle
  Surface 15,                             !- Name
  Wall,                                   !- Surface Type
  ,                                       !- Construction Name
  {376a0db3-0d8e-42d4-94d9-12c3cfd6cd99}, !- Space Name
  Outdoors,                               !- Outside Boundary Condition
  ,                                       !- Outside Boundary Condition Object
  SunExposed,                             !- Sun Exposure
  WindExposed,                            !- Wind Exposure
  ,                                       !- View Factor to Ground
  ,                                       !- Number of Vertices
  9.144, 0, 2.4384,                       !- X,Y,Z Vertex 1 {m}
  9.144, 0, 0,                            !- X,Y,Z Vertex 2 {m}
  4.572, 0, 0,                            !- X,Y,Z Vertex 3 {m}
  4.572, 0, 2.4384;                       !- X,Y,Z Vertex 4 {m}

OS:Surface,
  {5b297521-ee67-4ff2-b153-8e9a03df1ce3}, !- Handle
  Surface 16,                             !- Name
  Wall,                                   !- Surface Type
  ,                                       !- Construction Name
  {376a0db3-0d8e-42d4-94d9-12c3cfd6cd99}, !- Space Name
  Surface,                                !- Outside Boundary Condition
  {92880618-e869-49bf-af71-645f6c275015}, !- Outside Boundary Condition Object
  NoSun,                                  !- Sun Exposure
  NoWind,                                 !- Wind Exposure
  ,                                       !- View Factor to Ground
  ,                                       !- Number of Vertices
  4.572, 0, 2.4384,                       !- X,Y,Z Vertex 1 {m}
  4.572, 0, 0,                            !- X,Y,Z Vertex 2 {m}
  4.572, -9.144, 0,                       !- X,Y,Z Vertex 3 {m}
  4.572, -9.144, 2.4384;                  !- X,Y,Z Vertex 4 {m}

OS:Surface,
  {6676e5fd-8cda-4508-bc48-c40456cbd1a7}, !- Handle
  Surface 17,                             !- Name
  RoofCeiling,                            !- Surface Type
  ,                                       !- Construction Name
  {376a0db3-0d8e-42d4-94d9-12c3cfd6cd99}, !- Space Name
  Surface,                                !- Outside Boundary Condition
  {8961e8ef-3d5a-4eb0-9b6e-933bec78669d}, !- Outside Boundary Condition Object
  NoSun,                                  !- Sun Exposure
  NoWind,                                 !- Wind Exposure
  ,                                       !- View Factor to Ground
  ,                                       !- Number of Vertices
  9.144, -9.144, 2.4384,                  !- X,Y,Z Vertex 1 {m}
  9.144, 0, 2.4384,                       !- X,Y,Z Vertex 2 {m}
  4.572, 0, 2.4384,                       !- X,Y,Z Vertex 3 {m}
  4.572, -9.144, 2.4384;                  !- X,Y,Z Vertex 4 {m}

OS:ThermalZone,
  {d63f55a3-5a15-4c28-948b-fe64531457cf}, !- Handle
  living zone|unit 3,                     !- Name
  ,                                       !- Multiplier
  ,                                       !- Ceiling Height {m}
  ,                                       !- Volume {m3}
  ,                                       !- Floor Area {m2}
  ,                                       !- Zone Inside Convection Algorithm
  ,                                       !- Zone Outside Convection Algorithm
  ,                                       !- Zone Conditioning Equipment List Name
  {e03234c7-5cad-4d3e-b661-a676084559ff}, !- Zone Air Inlet Port List
  {7e96fa9d-72be-4fff-9391-6cdea7069c6a}, !- Zone Air Exhaust Port List
  {1caf57a4-ac50-47d3-bc46-47768d8e1163}, !- Zone Air Node Name
  ,                                       !- Zone Return Air Node Name
  ,                                       !- Primary Daylighting Control Name
  ,                                       !- Fraction of Zone Controlled by Primary Daylighting Control
  ,                                       !- Secondary Daylighting Control Name
  ,                                       !- Fraction of Zone Controlled by Secondary Daylighting Control
  ,                                       !- Illuminance Map Name
  ,                                       !- Group Rendering Name
  ,                                       !- Thermostat Name
  No;                                     !- Use Ideal Air Loads

OS:Node,
  {28d466b8-6141-4950-a430-853703c5c01b}, !- Handle
  Node 3,                                 !- Name