!- NOTE: Auto-generated from /test/osw_files/SFD_2000sqft_2story_FB_UA_Denver_Furnace_RoomAC.osw

OS:Version,
  {518a0efa-e90c-4cdf-b4ab-dbb9beafea5e}, !- Handle
  2.7.0;                                  !- Version Identifier

OS:Building,
  {09a3ac85-2417-4de5-8878-b7a34b7e2d36}, !- Handle
  Building 1,                             !- Name
  ,                                       !- Building Sector Type
  0,                                      !- North Axis {deg}
  ,                                       !- Nominal Floor to Floor Height {m}
  ,                                       !- Space Type Name
  ,                                       !- Default Construction Set Name
  ,                                       !- Default Schedule Set Name
  3,                                      !- Standards Number of Stories
  2,                                      !- Standards Number of Above Ground Stories
  ,                                       !- Standards Template
  singlefamilydetached,                   !- Standards Building Type
  1;                                      !- Standards Number of Living Units

OS:Facility,
  {cda5c99e-8610-4b64-9419-0cc5c87fb89c}; !- Handle

OS:Site,
  {b778e083-a85e-4fda-91ba-acf44494a7b4}, !- Handle
  Denver Intl Ap_CO_USA,                  !- Name
  39.83,                                  !- Latitude {deg}
  -104.65,                                !- Longitude {deg}
  -7,                                     !- Time Zone {hr}
  1650,                                   !- Elevation {m}
  ;                                       !- Terrain

OS:SimulationControl,
  {a5d2da31-1f68-4e63-8dcc-1b79bb157454}, !- Handle
  ,                                       !- Do Zone Sizing Calculation
  ,                                       !- Do System Sizing Calculation
  ,                                       !- Do Plant Sizing Calculation
  No;                                     !- Run Simulation for Sizing Periods

OS:Sizing:Parameters,
  {2feac881-04b0-47b4-8670-6e29ff293d5c}, !- Handle
  1.25,                                   !- Heating Sizing Factor
  1.15;                                   !- Cooling Sizing Factor

OS:Timestep,
  {f55ce8d8-c8f4-4769-9778-da7fa082590b}, !- Handle
  6;                                      !- Number of Timesteps per Hour

OS:ShadowCalculation,
  {4f949a17-756b-4dfb-9f05-3310622771b9}, !- Handle
  20,                                     !- Calculation Frequency
  200;                                    !- Maximum Figures in Shadow Overlap Calculations

OS:HeatBalanceAlgorithm,
  {e06025b1-d77c-4742-99e8-b5352a7e8191}, !- Handle
  ConductionTransferFunction,             !- Algorithm
  200;                                    !- Surface Temperature Upper Limit {C}

OS:RunPeriod,
  {52ac7503-fd39-41cf-b928-5bf8e5faa742}, !- Handle
  Run Period 1,                           !- Name
  1,                                      !- Begin Month
  1,                                      !- Begin Day of Month
  12,                                     !- End Month
  31,                                     !- End Day of Month
  ,                                       !- Use Weather File Holidays and Special Days
  ,                                       !- Use Weather File Daylight Saving Period
  ,                                       !- Apply Weekend Holiday Rule
  ,                                       !- Use Weather File Rain Indicators
  ,                                       !- Use Weather File Snow Indicators
  ;                                       !- Number of Times Runperiod to be Repeated

OS:LifeCycleCost:Parameters,
  {bf3b52b9-6bd2-4c6c-b67a-266472002dc8}, !- Handle
  ,                                       !- Analysis Type
  ,                                       !- Discounting Convention
  ,                                       !- Inflation Approach
  ,                                       !- Real Discount Rate
  ,                                       !- Nominal Discount Rate
  ,                                       !- Inflation
  ,                                       !- Base Date Month
  ,                                       !- Base Date Year
  ,                                       !- Service Date Month
  ,                                       !- Service Date Year
  ;                                       !- Length of Study Period in Years

OS:SurfaceConvectionAlgorithm:Outside,
  {8107f7b2-52a2-4669-8d94-18571b2ec023}, !- Handle
  DOE-2;                                  !- Algorithm

OS:SurfaceConvectionAlgorithm:Inside,
  {3ae1901d-cbca-41fe-bc65-f331a5a2d9e0}, !- Handle
  TARP;                                   !- Algorithm

OS:ZoneCapacitanceMultiplier:ResearchSpecial,
  {6dbad239-2814-4417-b2d6-70fe78497b45}, !- Handle
  ,                                       !- Temperature Capacity Multiplier
  15,                                     !- Humidity Capacity Multiplier
  ;                                       !- Carbon Dioxide Capacity Multiplier

OS:ThermalZone,
  {5a2c29bd-e056-4952-9087-186e12959458}, !- Handle
  living zone,                            !- Name
  ,                                       !- Multiplier
  ,                                       !- Ceiling Height {m}
  ,                                       !- Volume {m3}
  ,                                       !- Floor Area {m2}
  ,                                       !- Zone Inside Convection Algorithm
  ,                                       !- Zone Outside Convection Algorithm
  ,                                       !- Zone Conditioning Equipment List Name
  {772c3825-af5f-43d5-bc62-706169fba575}, !- Zone Air Inlet Port List
  {0a693cab-bd96-46af-954f-087200674c05}, !- Zone Air Exhaust Port List
  {d866fd36-6cd8-4bac-9f5d-171a3a89e052}, !- Zone Air Node Name
  {cb3dd1fe-2a50-43ad-a67c-26ef498011df}, !- Zone Return Air Port List
  ,                                       !- Primary Daylighting Control Name
  ,                                       !- Fraction of Zone Controlled by Primary Daylighting Control
  ,                                       !- Secondary Daylighting Control Name
  ,                                       !- Fraction of Zone Controlled by Secondary Daylighting Control
  ,                                       !- Illuminance Map Name
  ,                                       !- Group Rendering Name
  {8f45b136-2700-46e6-8e17-c78f78cf1b9a}, !- Thermostat Name
  No;                                     !- Use Ideal Air Loads

OS:Node,
  {70759662-c0fd-42b8-90ef-1a2148f5a9a9}, !- Handle
  Node 1,                                 !- Name
  {d866fd36-6cd8-4bac-9f5d-171a3a89e052}, !- Inlet Port
  ;                                       !- Outlet Port

OS:Connection,
  {d866fd36-6cd8-4bac-9f5d-171a3a89e052}, !- Handle
  {8632c98e-5105-4169-a783-1c777624e5f9}, !- Name
  {5a2c29bd-e056-4952-9087-186e12959458}, !- Source Object
  11,                                     !- Outlet Port
  {70759662-c0fd-42b8-90ef-1a2148f5a9a9}, !- Target Object
  2;                                      !- Inlet Port

OS:PortList,
  {772c3825-af5f-43d5-bc62-706169fba575}, !- Handle
  {125dc36d-2d6f-420e-b993-321314fb2029}, !- Name
  {5a2c29bd-e056-4952-9087-186e12959458}, !- HVAC Component
  {f9ea70af-10fe-4ea9-8fd6-6ed6816a9178}, !- Port 1
  {cae2da1a-499e-4e32-a7b7-912ff2eec2cd}; !- Port 2

OS:PortList,
  {0a693cab-bd96-46af-954f-087200674c05}, !- Handle
  {f5992a80-2e5f-4051-a3bc-b828b36e30e4}, !- Name
  {5a2c29bd-e056-4952-9087-186e12959458}, !- HVAC Component
  {1afbce4b-2bd0-4120-838e-91ba68bdce04}; !- Port 1

OS:PortList,
  {cb3dd1fe-2a50-43ad-a67c-26ef498011df}, !- Handle
  {52a625aa-6767-4f0b-b4e7-209b8c5ae7b0}, !- Name
  {5a2c29bd-e056-4952-9087-186e12959458}, !- HVAC Component
  {9a362e59-2c88-4b6a-8dcd-71b8865b7935}; !- Port 1

OS:Sizing:Zone,
  {b3680c90-75c1-43ca-839c-ebc1a07a6942}, !- Handle
  {5a2c29bd-e056-4952-9087-186e12959458}, !- Zone or ZoneList Name
  SupplyAirTemperature,                   !- Zone Cooling Design Supply Air Temperature Input Method
  14,                                     !- Zone Cooling Design Supply Air Temperature {C}
  11.11,                                  !- Zone Cooling Design Supply Air Temperature Difference {deltaC}
  SupplyAirTemperature,                   !- Zone Heating Design Supply Air Temperature Input Method
  40,                                     !- Zone Heating Design Supply Air Temperature {C}
  11.11,                                  !- Zone Heating Design Supply Air Temperature Difference {deltaC}
  0.0085,                                 !- Zone Cooling Design Supply Air Humidity Ratio {kg-H2O/kg-air}
  0.008,                                  !- Zone Heating Design Supply Air Humidity Ratio {kg-H2O/kg-air}
  ,                                       !- Zone Heating Sizing Factor
  ,                                       !- Zone Cooling Sizing Factor
  DesignDay,                              !- Cooling Design Air Flow Method
  ,                                       !- Cooling Design Air Flow Rate {m3/s}
  ,                                       !- Cooling Minimum Air Flow per Zone Floor Area {m3/s-m2}
  ,                                       !- Cooling Minimum Air Flow {m3/s}
  ,                                       !- Cooling Minimum Air Flow Fraction
  DesignDay,                              !- Heating Design Air Flow Method
  ,                                       !- Heating Design Air Flow Rate {m3/s}
  ,                                       !- Heating Maximum Air Flow per Zone Floor Area {m3/s-m2}
  ,                                       !- Heating Maximum Air Flow {m3/s}
  ,                                       !- Heating Maximum Air Flow Fraction
  ,                                       !- Design Zone Air Distribution Effectiveness in Cooling Mode
  ,                                       !- Design Zone Air Distribution Effectiveness in Heating Mode
  No,                                     !- Account for Dedicated Outdoor Air System
  NeutralSupplyAir,                       !- Dedicated Outdoor Air System Control Strategy
  autosize,                               !- Dedicated Outdoor Air Low Setpoint Temperature for Design {C}
  autosize;                               !- Dedicated Outdoor Air High Setpoint Temperature for Design {C}

OS:ZoneHVAC:EquipmentList,
  {f317eb71-b36b-428f-9c5a-445ccdefd3fe}, !- Handle
  Zone HVAC Equipment List 1,             !- Name
  {5a2c29bd-e056-4952-9087-186e12959458}, !- Thermal Zone
  ,                                       !- Load Distribution Scheme
  {90f4c2ce-9ec2-43a5-9b71-4ffe0765cb8d}, !- Zone Equipment 1
  1,                                      !- Zone Equipment Cooling Sequence 1
  1,                                      !- Zone Equipment Heating or No-Load Sequence 1
  {0946911d-c56e-4c1b-b79b-5495d8153852}, !- Zone Equipment 2
  2,                                      !- Zone Equipment Cooling Sequence 2
  2;                                      !- Zone Equipment Heating or No-Load Sequence 2

OS:Space,
  {e90e864b-3290-4afb-bbb0-4ee807ba5b76}, !- Handle
  living space,                           !- Name
  {46e4edcc-6a10-42fa-9b60-b9fdf57ecaa9}, !- Space Type Name
  ,                                       !- Default Construction Set Name
  ,                                       !- Default Schedule Set Name
  -0,                                     !- Direction of Relative North {deg}
  0,                                      !- X Origin {m}
  0,                                      !- Y Origin {m}
  0,                                      !- Z Origin {m}
  ,                                       !- Building Story Name
  {5a2c29bd-e056-4952-9087-186e12959458}, !- Thermal Zone Name
  ,                                       !- Part of Total Floor Area
  ,                                       !- Design Specification Outdoor Air Object Name
  {52aab907-0456-4237-9984-16d4998a1a55}; !- Building Unit Name

OS:Surface,
  {e3bad7a8-32a1-4340-98de-9f66a4025dca}, !- Handle
  Surface 1,                              !- Name
  Floor,                                  !- Surface Type
  ,                                       !- Construction Name
  {e90e864b-3290-4afb-bbb0-4ee807ba5b76}, !- Space Name
  Surface,                                !- Outside Boundary Condition
  {df035f49-9b2e-4c2f-91a2-24bd7089949c}, !- Outside Boundary Condition Object
  NoSun,                                  !- Sun Exposure
  NoWind,                                 !- Wind Exposure
  ,                                       !- View Factor to Ground
  ,                                       !- Number of Vertices
  0, 0, 0,                                !- X,Y,Z Vertex 1 {m}
  0, 5.56486118425249, 0,                 !- X,Y,Z Vertex 2 {m}
  11.129722368505, 5.56486118425249, 0,   !- X,Y,Z Vertex 3 {m}
  11.129722368505, 0, 0;                  !- X,Y,Z Vertex 4 {m}

OS:Surface,
  {6cc931f1-73dd-452e-b40f-1e2d27eba85e}, !- Handle
  Surface 2,                              !- Name
  Wall,                                   !- Surface Type
  ,                                       !- Construction Name
  {e90e864b-3290-4afb-bbb0-4ee807ba5b76}, !- Space Name
  Outdoors,                               !- Outside Boundary Condition
  ,                                       !- Outside Boundary Condition Object
  SunExposed,                             !- Sun Exposure
  WindExposed,                            !- Wind Exposure
  ,                                       !- View Factor to Ground
  ,                                       !- Number of Vertices
  0, 5.56486118425249, 2.4384,            !- X,Y,Z Vertex 1 {m}
  0, 5.56486118425249, 0,                 !- X,Y,Z Vertex 2 {m}
  0, 0, 0,                                !- X,Y,Z Vertex 3 {m}
  0, 0, 2.4384;                           !- X,Y,Z Vertex 4 {m}

OS:Surface,
  {a2331989-3060-4e5d-bde0-0f2bffb45e14}, !- Handle
  Surface 3,                              !- Name
  Wall,                                   !- Surface Type
  ,                                       !- Construction Name
  {e90e864b-3290-4afb-bbb0-4ee807ba5b76}, !- Space Name
  Outdoors,                               !- Outside Boundary Condition
  ,                                       !- Outside Boundary Condition Object
  SunExposed,                             !- Sun Exposure
  WindExposed,                            !- Wind Exposure
  ,                                       !- View Factor to Ground
  ,                                       !- Number of Vertices
  11.129722368505, 5.56486118425249, 2.4384, !- X,Y,Z Vertex 1 {m}
  11.129722368505, 5.56486118425249, 0,   !- X,Y,Z Vertex 2 {m}
  0, 5.56486118425249, 0,                 !- X,Y,Z Vertex 3 {m}
  0, 5.56486118425249, 2.4384;            !- X,Y,Z Vertex 4 {m}

OS:Surface,
  {97c51cb0-f68a-4255-b3b2-88557c02939f}, !- Handle
  Surface 4,                              !- Name
  Wall,                                   !- Surface Type
  ,                                       !- Construction Name
  {e90e864b-3290-4afb-bbb0-4ee807ba5b76}, !- Space Name
  Outdoors,                               !- Outside Boundary Condition
  ,                                       !- Outside Boundary Condition Object
  SunExposed,                             !- Sun Exposure
  WindExposed,                            !- Wind Exposure
  ,                                       !- View Factor to Ground
  ,                                       !- Number of Vertices
  11.129722368505, 0, 2.4384,             !- X,Y,Z Vertex 1 {m}
  11.129722368505, 0, 0,                  !- X,Y,Z Vertex 2 {m}
  11.129722368505, 5.56486118425249, 0,   !- X,Y,Z Vertex 3 {m}
  11.129722368505, 5.56486118425249, 2.4384; !- X,Y,Z Vertex 4 {m}

OS:Surface,
  {248bdabb-dd0e-44db-8815-0454f9bc3408}, !- Handle
  Surface 5,                              !- Name
  Wall,                                   !- Surface Type
  ,                                       !- Construction Name
  {e90e864b-3290-4afb-bbb0-4ee807ba5b76}, !- Space Name
  Outdoors,                               !- Outside Boundary Condition
  ,                                       !- Outside Boundary Condition Object
  SunExposed,                             !- Sun Exposure
  WindExposed,                            !- Wind Exposure
  ,                                       !- View Factor to Ground
  ,                                       !- Number of Vertices
  0, 0, 2.4384,                           !- X,Y,Z Vertex 1 {m}
  0, 0, 0,                                !- X,Y,Z Vertex 2 {m}
  11.129722368505, 0, 0,                  !- X,Y,Z Vertex 3 {m}
  11.129722368505, 0, 2.4384;             !- X,Y,Z Vertex 4 {m}

OS:Surface,
  {0e7dc83b-ba35-4952-8f7d-b929543df617}, !- Handle
  Surface 6,                              !- Name
  RoofCeiling,                            !- Surface Type
  ,                                       !- Construction Name
  {e90e864b-3290-4afb-bbb0-4ee807ba5b76}, !- Space Name
  Surface,                                !- Outside Boundary Condition
  {a3c9f5a4-2321-4ad8-bbaf-5b873fc7d97a}, !- Outside Boundary Condition Object
  NoSun,                                  !- Sun Exposure
  NoWind,                                 !- Wind Exposure
  ,                                       !- View Factor to Ground
  ,                                       !- Number of Vertices
  11.129722368505, 0, 2.4384,             !- X,Y,Z Vertex 1 {m}
  11.129722368505, 5.56486118425249, 2.4384, !- X,Y,Z Vertex 2 {m}
  0, 5.56486118425249, 2.4384,            !- X,Y,Z Vertex 3 {m}
  0, 0, 2.4384;                           !- X,Y,Z Vertex 4 {m}

OS:SpaceType,
  {46e4edcc-6a10-42fa-9b60-b9fdf57ecaa9}, !- Handle
  Space Type 1,                           !- Name
  ,                                       !- Default Construction Set Name
  ,                                       !- Default Schedule Set Name
  ,                                       !- Group Rendering Name
  ,                                       !- Design Specification Outdoor Air Object Name
  ,                                       !- Standards Template
  ,                                       !- Standards Building Type
  living;                                 !- Standards Space Type

OS:Space,
  {33969822-120f-4662-8643-002fc411b611}, !- Handle
  living space|story 2,                   !- Name
  {46e4edcc-6a10-42fa-9b60-b9fdf57ecaa9}, !- Space Type Name
  ,                                       !- Default Construction Set Name
  ,                                       !- Default Schedule Set Name
  -0,                                     !- Direction of Relative North {deg}
  0,                                      !- X Origin {m}
  0,                                      !- Y Origin {m}
  2.4384,                                 !- Z Origin {m}
  ,                                       !- Building Story Name
  {5a2c29bd-e056-4952-9087-186e12959458}, !- Thermal Zone Name
  ,                                       !- Part of Total Floor Area
  ,                                       !- Design Specification Outdoor Air Object Name
  {52aab907-0456-4237-9984-16d4998a1a55}; !- Building Unit Name

OS:Surface,
  {a3c9f5a4-2321-4ad8-bbaf-5b873fc7d97a}, !- Handle
  Surface 7,                              !- Name
  Floor,                                  !- Surface Type
  ,                                       !- Construction Name
  {33969822-120f-4662-8643-002fc411b611}, !- Space Name
  Surface,                                !- Outside Boundary Condition
  {0e7dc83b-ba35-4952-8f7d-b929543df617}, !- Outside Boundary Condition Object
  NoSun,                                  !- Sun Exposure
  NoWind,                                 !- Wind Exposure
  ,                                       !- View Factor to Ground
  ,                                       !- Number of Vertices
  0, 0, 0,                                !- X,Y,Z Vertex 1 {m}
  0, 5.56486118425249, 0,                 !- X,Y,Z Vertex 2 {m}
  11.129722368505, 5.56486118425249, 0,   !- X,Y,Z Vertex 3 {m}
  11.129722368505, 0, 0;                  !- X,Y,Z Vertex 4 {m}

OS:Surface,
  {dfa11397-e463-4466-8b41-b4c0d78319ab}, !- Handle
  Surface 8,                              !- Name
  Wall,                                   !- Surface Type
  ,                                       !- Construction Name
  {33969822-120f-4662-8643-002fc411b611}, !- Space Name
  Outdoors,                               !- Outside Boundary Condition
  ,                                       !- Outside Boundary Condition Object
  SunExposed,                             !- Sun Exposure
  WindExposed,                            !- Wind Exposure
  ,                                       !- View Factor to Ground
  ,                                       !- Number of Vertices
  0, 5.56486118425249, 2.4384,            !- X,Y,Z Vertex 1 {m}
  0, 5.56486118425249, 0,                 !- X,Y,Z Vertex 2 {m}
  0, 0, 0,                                !- X,Y,Z Vertex 3 {m}
  0, 0, 2.4384;                           !- X,Y,Z Vertex 4 {m}

OS:Surface,
  {535fb6f9-a508-4b81-b7e3-1e82a154ee3c}, !- Handle
  Surface 9,                              !- Name
  Wall,                                   !- Surface Type
  ,                                       !- Construction Name
  {33969822-120f-4662-8643-002fc411b611}, !- Space Name
  Outdoors,                               !- Outside Boundary Condition
  ,                                       !- Outside Boundary Condition Object
  SunExposed,                             !- Sun Exposure
  WindExposed,                            !- Wind Exposure
  ,                                       !- View Factor to Ground
  ,                                       !- Number of Vertices
  11.129722368505, 5.56486118425249, 2.4384, !- X,Y,Z Vertex 1 {m}
  11.129722368505, 5.56486118425249, 0,   !- X,Y,Z Vertex 2 {m}
  0, 5.56486118425249, 0,                 !- X,Y,Z Vertex 3 {m}
  0, 5.56486118425249, 2.4384;            !- X,Y,Z Vertex 4 {m}

OS:Surface,
  {056fed24-0c9d-43c7-a9e3-7405754d2b12}, !- Handle
  Surface 10,                             !- Name
  Wall,                                   !- Surface Type
  ,                                       !- Construction Name
  {33969822-120f-4662-8643-002fc411b611}, !- Space Name
  Outdoors,                               !- Outside Boundary Condition
  ,                                       !- Outside Boundary Condition Object
  SunExposed,                             !- Sun Exposure
  WindExposed,                            !- Wind Exposure
  ,                                       !- View Factor to Ground
  ,                                       !- Number of Vertices
  11.129722368505, 0, 2.4384,             !- X,Y,Z Vertex 1 {m}
  11.129722368505, 0, 0,                  !- X,Y,Z Vertex 2 {m}
  11.129722368505, 5.56486118425249, 0,   !- X,Y,Z Vertex 3 {m}
  11.129722368505, 5.56486118425249, 2.4384; !- X,Y,Z Vertex 4 {m}

OS:Surface,
  {94ea46b8-8965-4978-881c-20d30cb68c24}, !- Handle
  Surface 11,                             !- Name
  Wall,                                   !- Surface Type
  ,                                       !- Construction Name
  {33969822-120f-4662-8643-002fc411b611}, !- Space Name
  Outdoors,                               !- Outside Boundary Condition
  ,                                       !- Outside Boundary Condition Object
  SunExposed,                             !- Sun Exposure
  WindExposed,                            !- Wind Exposure
  ,                                       !- View Factor to Ground
  ,                                       !- Number of Vertices
  0, 0, 2.4384,                           !- X,Y,Z Vertex 1 {m}
  0, 0, 0,                                !- X,Y,Z Vertex 2 {m}
  11.129722368505, 0, 0,                  !- X,Y,Z Vertex 3 {m}
  11.129722368505, 0, 2.4384;             !- X,Y,Z Vertex 4 {m}

OS:Surface,
  {a6e8ae16-fe82-492b-9e56-d0062588632c}, !- Handle
  Surface 12,                             !- Name
  RoofCeiling,                            !- Surface Type
  ,                                       !- Construction Name
  {33969822-120f-4662-8643-002fc411b611}, !- Space Name
  Surface,                                !- Outside Boundary Condition
  {8bb1f250-74fc-4b0b-9077-44a30cf32e28}, !- Outside Boundary Condition Object
  NoSun,                                  !- Sun Exposure
  NoWind,                                 !- Wind Exposure
  ,                                       !- View Factor to Ground
  ,                                       !- Number of Vertices
  11.129722368505, 0, 2.4384,             !- X,Y,Z Vertex 1 {m}
  11.129722368505, 5.56486118425249, 2.4384, !- X,Y,Z Vertex 2 {m}
  0, 5.56486118425249, 2.4384,            !- X,Y,Z Vertex 3 {m}
  0, 0, 2.4384;                           !- X,Y,Z Vertex 4 {m}

OS:Surface,
  {8bb1f250-74fc-4b0b-9077-44a30cf32e28}, !- Handle
  Surface 13,                             !- Name
  Floor,                                  !- Surface Type
  ,                                       !- Construction Name
  {46732889-403c-4c97-a6de-7dd84eb97947}, !- Space Name
  Surface,                                !- Outside Boundary Condition
  {a6e8ae16-fe82-492b-9e56-d0062588632c}, !- Outside Boundary Condition Object
  NoSun,                                  !- Sun Exposure
  NoWind,                                 !- Wind Exposure
  ,                                       !- View Factor to Ground
  ,                                       !- Number of Vertices
  0, 5.56486118425249, 0,                 !- X,Y,Z Vertex 1 {m}
  11.129722368505, 5.56486118425249, 0,   !- X,Y,Z Vertex 2 {m}
  11.129722368505, 0, 0,                  !- X,Y,Z Vertex 3 {m}
  0, 0, 0;                                !- X,Y,Z Vertex 4 {m}

OS:Surface,
  {86546234-ca1e-4b05-baf0-d3b52ae2ac6d}, !- Handle
  Surface 14,                             !- Name
  RoofCeiling,                            !- Surface Type
  ,                                       !- Construction Name
  {46732889-403c-4c97-a6de-7dd84eb97947}, !- Space Name
  Outdoors,                               !- Outside Boundary Condition
  ,                                       !- Outside Boundary Condition Object
  SunExposed,                             !- Sun Exposure
  WindExposed,                            !- Wind Exposure
  ,                                       !- View Factor to Ground
  ,                                       !- Number of Vertices
  11.129722368505, 2.78243059212624, 1.39121529606312, !- X,Y,Z Vertex 1 {m}
  0, 2.78243059212624, 1.39121529606312,  !- X,Y,Z Vertex 2 {m}
  0, 0, 0,                                !- X,Y,Z Vertex 3 {m}
  11.129722368505, 0, 0;                  !- X,Y,Z Vertex 4 {m}

OS:Surface,
  {15c67c4a-ebb2-4e49-b526-c553d461436d}, !- Handle
  Surface 15,                             !- Name
  RoofCeiling,                            !- Surface Type
  ,                                       !- Construction Name
  {46732889-403c-4c97-a6de-7dd84eb97947}, !- Space Name
  Outdoors,                               !- Outside Boundary Condition
  ,                                       !- Outside Boundary Condition Object
  SunExposed,                             !- Sun Exposure
  WindExposed,                            !- Wind Exposure
  ,                                       !- View Factor to Ground
  ,                                       !- Number of Vertices
  0, 2.78243059212624, 1.39121529606312,  !- X,Y,Z Vertex 1 {m}
  11.129722368505, 2.78243059212624, 1.39121529606312, !- X,Y,Z Vertex 2 {m}
  11.129722368505, 5.56486118425249, 0,   !- X,Y,Z Vertex 3 {m}
  0, 5.56486118425249, 0;                 !- X,Y,Z Vertex 4 {m}

OS:Surface,
  {41f713e1-9bfa-4072-bb3a-edf9133e8e87}, !- Handle
  Surface 16,                             !- Name
  Wall,                                   !- Surface Type
  ,                                       !- Construction Name
  {46732889-403c-4c97-a6de-7dd84eb97947}, !- Space Name
  Outdoors,                               !- Outside Boundary Condition
  ,                                       !- Outside Boundary Condition Object
  SunExposed,                             !- Sun Exposure
  WindExposed,                            !- Wind Exposure
  ,                                       !- View Factor to Ground
  ,                                       !- Number of Vertices
  0, 2.78243059212624, 1.39121529606312,  !- X,Y,Z Vertex 1 {m}
  0, 5.56486118425249, 0,                 !- X,Y,Z Vertex 2 {m}
  0, 0, 0;                                !- X,Y,Z Vertex 3 {m}

OS:Surface,
  {b001e1b0-dd35-4267-a122-9aba75fb14b7}, !- Handle
  Surface 17,                             !- Name
  Wall,                                   !- Surface Type
  ,                                       !- Construction Name
  {46732889-403c-4c97-a6de-7dd84eb97947}, !- Space Name
  Outdoors,                               !- Outside Boundary Condition
  ,                                       !- Outside Boundary Condition Object
  SunExposed,                             !- Sun Exposure
  WindExposed,                            !- Wind Exposure
  ,                                       !- View Factor to Ground
  ,                                       !- Number of Vertices
  11.129722368505, 2.78243059212624, 1.39121529606312, !- X,Y,Z Vertex 1 {m}
  11.129722368505, 0, 0,                  !- X,Y,Z Vertex 2 {m}
  11.129722368505, 5.56486118425249, 0;   !- X,Y,Z Vertex 3 {m}

OS:Space,
  {46732889-403c-4c97-a6de-7dd84eb97947}, !- Handle
  unfinished attic space,                 !- Name
  {ef413a2b-bef1-4df0-a8b7-a111f6236c96}, !- Space Type Name
  ,                                       !- Default Construction Set Name
  ,                                       !- Default Schedule Set Name
  -0,                                     !- Direction of Relative North {deg}