!- NOTE: Auto-generated from /test/osw_files/SFD_2000sqft_2story_SL_UA_AllLayersButExteriorFinish_CeilingIns.osw

OS:Version,
  {8e23d82a-bfea-40a6-bdc5-7a67e7b21001}, !- Handle
  2.5.0;                                  !- Version Identifier

OS:Building,
  {bf305633-c5a1-4881-9edf-ca5e1a8e1274}, !- Handle
  Building,                               !- Name
  ,                                       !- Building Sector Type
  ,                                       !- North Axis {deg}
  ,                                       !- Nominal Floor to Floor Height {m}
  ,                                       !- Space Type Name
  ,                                       !- Default Construction Set Name
  ,                                       !- Default Schedule Set Name
  2,                                      !- Standards Number of Stories
  2,                                      !- Standards Number of Above Ground Stories
  singlefamilydetached,                   !- Standards Building Type
  1;                                      !- Standards Number of Living Units

OS:YearDescription,
  {513d8dda-86cb-442a-b01c-1f7f0e0ac70e}; !- Handle

OS:SimulationControl,
  {2c487a4c-bac9-4ac5-b669-1e49d9da7c2b}, !- Handle
  ,                                       !- Do Zone Sizing Calculation
  ,                                       !- Do System Sizing Calculation
  ,                                       !- Do Plant Sizing Calculation
  No,                                     !- Run Simulation for Sizing Periods
  ;                                       !- Run Simulation for Weather File Run Periods

OS:Timestep,
  {4ebc9f1e-4707-402e-9844-67eb1ffbd522}, !- Handle
  6;                                      !- Number of Timesteps per Hour

OS:RunPeriod,
  {28df894d-6af9-4fb8-8f56-df1753344aa3}, !- Handle
  Run Period,                             !- Name
  1,                                      !- Begin Month
  1,                                      !- Begin Day of Month
  12,                                     !- End Month
  31,                                     !- End Day of Month
  ,                                       !- Use Weather File Holidays and Special Days
  ,                                       !- Use Weather File Daylight Saving Period
  ,                                       !- Apply Weekend Holiday Rule
  ,                                       !- Use Weather File Rain Indicators
  ,                                       !- Use Weather File Snow Indicators
  ;                                       !- Number of Times Runperiod to be Repeated

OS:Sizing:Parameters,
  {dde5af6f-7923-4600-a28a-7556673a0266}, !- Handle
  1.0,                                    !- Heating Sizing Factor
  1.0;                                    !- Cooling Sizing Factor

OS:ShadowCalculation,
  {ca758bea-4416-4626-9bba-3d8795c79bd6}, !- Handle
  20,                                     !- Calculation Frequency
  200;                                    !- Maximum Figures in Shadow Overlap Calculations

OS:SurfaceConvectionAlgorithm:Inside,
  {aaabfc36-718a-4ab0-b622-f186ebb45230}, !- Handle
  TARP;                                   !- Algorithm

OS:SurfaceConvectionAlgorithm:Outside,
  {9a0a9f6f-4bbd-4b12-a121-9492a1fcd7d6}, !- Handle
  DOE-2;                                  !- Algorithm

OS:HeatBalanceAlgorithm,
  {9d93e563-e1e0-46d7-9e39-d1c8aceb7212}, !- Handle
  ConductionTransferFunction,             !- Algorithm
  200;                                    !- Surface Temperature Upper Limit {C}

OS:ZoneCapacitanceMultiplier:ResearchSpecial,
  {6bfced16-b16f-47f6-8223-f7e267d75d19}, !- Handle
  ,                                       !- Temperature Capacity Multiplier
  15,                                     !- Humidity Capacity Multiplier
  ;                                       !- Carbon Dioxide Capacity Multiplier

OS:ThermalZone,
  {b6a75ad2-3e27-43cc-a272-6433c22a4eba}, !- Handle
  living zone,                            !- Name
  ,                                       !- Multiplier
  ,                                       !- Ceiling Height {m}
  ,                                       !- Volume {m3}
  ,                                       !- Floor Area {m2}
  ,                                       !- Zone Inside Convection Algorithm
  ,                                       !- Zone Outside Convection Algorithm
  ,                                       !- Zone Conditioning Equipment List Name
  {9b3f83e7-5267-4462-ba79-83a7fdfb42c4}, !- Zone Air Inlet Port List
  {478be163-c04d-4db0-b1c5-30b264738316}, !- Zone Air Exhaust Port List
  {9597da03-88fe-4c5b-b5c4-babe007709c1}, !- Zone Air Node Name
  ,                                       !- Zone Return Air Node Name
  ,                                       !- Primary Daylighting Control Name
  ,                                       !- Fraction of Zone Controlled by Primary Daylighting Control
  ,                                       !- Secondary Daylighting Control Name
  ,                                       !- Fraction of Zone Controlled by Secondary Daylighting Control
  ,                                       !- Illuminance Map Name
  ,                                       !- Group Rendering Name
  ,                                       !- Thermostat Name
  No;                                     !- Use Ideal Air Loads

OS:Node,
  {730a3c8b-a311-45be-8bbc-76e4c63e7771}, !- Handle
  Node 1,                                 !- Name
  {9597da03-88fe-4c5b-b5c4-babe007709c1}, !- Inlet Port
  ;                                       !- Outlet Port

OS:Connection,
  {9597da03-88fe-4c5b-b5c4-babe007709c1}, !- Handle
  {910e9253-16df-41dc-808e-9c614cedc5ed}, !- Name
  {b6a75ad2-3e27-43cc-a272-6433c22a4eba}, !- Source Object
  11,                                     !- Outlet Port
  {730a3c8b-a311-45be-8bbc-76e4c63e7771}, !- Target Object
  2;                                      !- Inlet Port

OS:PortList,
  {9b3f83e7-5267-4462-ba79-83a7fdfb42c4}, !- Handle
  {8363e734-c305-4006-b68c-822fb396e0dc}, !- Name
  {b6a75ad2-3e27-43cc-a272-6433c22a4eba}; !- HVAC Component

OS:PortList,
  {478be163-c04d-4db0-b1c5-30b264738316}, !- Handle
  {60d01439-beaa-4058-8f9d-0d3866845fc3}, !- Name
  {b6a75ad2-3e27-43cc-a272-6433c22a4eba}; !- HVAC Component

OS:Sizing:Zone,
  {e68908e3-8fcc-4c0a-8980-ec337243d5df}, !- Handle
  {b6a75ad2-3e27-43cc-a272-6433c22a4eba}, !- Zone or ZoneList Name
  SupplyAirTemperature,                   !- Zone Cooling Design Supply Air Temperature Input Method
  14,                                     !- Zone Cooling Design Supply Air Temperature {C}
  11.11,                                  !- Zone Cooling Design Supply Air Temperature Difference {deltaC}
  SupplyAirTemperature,                   !- Zone Heating Design Supply Air Temperature Input Method
  40,                                     !- Zone Heating Design Supply Air Temperature {C}
  11.11,                                  !- Zone Heating Design Supply Air Temperature Difference {deltaC}
  0.0085,                                 !- Zone Cooling Design Supply Air Humidity Ratio {kg-H2O/kg-air}
  0.008,                                  !- Zone Heating Design Supply Air Humidity Ratio {kg-H2O/kg-air}
  ,                                       !- Zone Heating Sizing Factor
  ,                                       !- Zone Cooling Sizing Factor
  DesignDay,                              !- Cooling Design Air Flow Method
  ,                                       !- Cooling Design Air Flow Rate {m3/s}
  ,                                       !- Cooling Minimum Air Flow per Zone Floor Area {m3/s-m2}
  ,                                       !- Cooling Minimum Air Flow {m3/s}
  ,                                       !- Cooling Minimum Air Flow Fraction
  DesignDay,                              !- Heating Design Air Flow Method
  ,                                       !- Heating Design Air Flow Rate {m3/s}
  ,                                       !- Heating Maximum Air Flow per Zone Floor Area {m3/s-m2}
  ,                                       !- Heating Maximum Air Flow {m3/s}
  ,                                       !- Heating Maximum Air Flow Fraction
  ,                                       !- Design Zone Air Distribution Effectiveness in Cooling Mode
  ,                                       !- Design Zone Air Distribution Effectiveness in Heating Mode
  No,                                     !- Account for Dedicated Outdoor Air System
  NeutralSupplyAir,                       !- Dedicated Outdoor Air System Control Strategy
  autosize,                               !- Dedicated Outdoor Air Low Setpoint Temperature for Design {C}
  autosize;                               !- Dedicated Outdoor Air High Setpoint Temperature for Design {C}

OS:ZoneHVAC:EquipmentList,
  {e07c608c-92ac-4a71-8800-7beed4e794f8}, !- Handle
  Zone HVAC Equipment List 1,             !- Name
  {b6a75ad2-3e27-43cc-a272-6433c22a4eba}; !- Thermal Zone

OS:Space,
  {438f4464-156f-4dd4-9935-b5d0e6c8b129}, !- Handle
  living space,                           !- Name
  {e410f6fa-acfb-4a76-8865-2e223963f7af}, !- Space Type Name
  ,                                       !- Default Construction Set Name
  ,                                       !- Default Schedule Set Name
  -0,                                     !- Direction of Relative North {deg}
  0,                                      !- X Origin {m}
  0,                                      !- Y Origin {m}
  0,                                      !- Z Origin {m}
  ,                                       !- Building Story Name
  {b6a75ad2-3e27-43cc-a272-6433c22a4eba}, !- Thermal Zone Name
  ,                                       !- Part of Total Floor Area
  ,                                       !- Design Specification Outdoor Air Object Name
  {f4ee3b40-dbc8-46aa-a957-257029326fed}; !- Building Unit Name

OS:Surface,
  {29313db5-b630-46d0-a8a1-fc97f16064ef}, !- Handle
  Surface 1,                              !- Name
  Floor,                                  !- Surface Type
  ,                                       !- Construction Name
  {438f4464-156f-4dd4-9935-b5d0e6c8b129}, !- Space Name
  Ground,                                 !- Outside Boundary Condition
  ,                                       !- Outside Boundary Condition Object
  NoSun,                                  !- Sun Exposure
  NoWind,                                 !- Wind Exposure
  ,                                       !- View Factor to Ground
  ,                                       !- Number of Vertices
  0, 0, 0,                                !- X,Y,Z Vertex 1 {m}
  0, 6.81553519541936, 0,                 !- X,Y,Z Vertex 2 {m}
  13.6310703908387, 6.81553519541936, 0,  !- X,Y,Z Vertex 3 {m}
  13.6310703908387, 0, 0;                 !- X,Y,Z Vertex 4 {m}

OS:Surface,
  {9425151f-28b7-4b92-be34-480030b91eb3}, !- Handle
  Surface 2,                              !- Name
  Wall,                                   !- Surface Type
  {de65db26-f4ee-4efb-a26b-fbced26a0bd2}, !- Construction Name
  {438f4464-156f-4dd4-9935-b5d0e6c8b129}, !- Space Name
  Outdoors,                               !- Outside Boundary Condition
  ,                                       !- Outside Boundary Condition Object
  SunExposed,                             !- Sun Exposure
  WindExposed,                            !- Wind Exposure
  ,                                       !- View Factor to Ground
  ,                                       !- Number of Vertices
  0, 6.81553519541936, 2.4384,            !- X,Y,Z Vertex 1 {m}
  0, 6.81553519541936, 0,                 !- X,Y,Z Vertex 2 {m}
  0, 0, 0,                                !- X,Y,Z Vertex 3 {m}
  0, 0, 2.4384;                           !- X,Y,Z Vertex 4 {m}

OS:Surface,
  {2509c475-30b5-4bb0-a180-c9405069b111}, !- Handle
  Surface 3,                              !- Name
  Wall,                                   !- Surface Type
  {de65db26-f4ee-4efb-a26b-fbced26a0bd2}, !- Construction Name
  {438f4464-156f-4dd4-9935-b5d0e6c8b129}, !- Space Name
  Outdoors,                               !- Outside Boundary Condition
  ,                                       !- Outside Boundary Condition Object
  SunExposed,                             !- Sun Exposure
  WindExposed,                            !- Wind Exposure
  ,                                       !- View Factor to Ground
  ,                                       !- Number of Vertices
  13.6310703908387, 6.81553519541936, 2.4384, !- X,Y,Z Vertex 1 {m}
  13.6310703908387, 6.81553519541936, 0,  !- X,Y,Z Vertex 2 {m}
  0, 6.81553519541936, 0,                 !- X,Y,Z Vertex 3 {m}
  0, 6.81553519541936, 2.4384;            !- X,Y,Z Vertex 4 {m}

OS:Surface,
  {6ec91439-9986-4ca6-a141-7e6441333f39}, !- Handle
  Surface 4,                              !- Name
  Wall,                                   !- Surface Type
  {de65db26-f4ee-4efb-a26b-fbced26a0bd2}, !- Construction Name
  {438f4464-156f-4dd4-9935-b5d0e6c8b129}, !- Space Name
  Outdoors,                               !- Outside Boundary Condition
  ,                                       !- Outside Boundary Condition Object
  SunExposed,                             !- Sun Exposure
  WindExposed,                            !- Wind Exposure
  ,                                       !- View Factor to Ground
  ,                                       !- Number of Vertices
  13.6310703908387, 0, 2.4384,            !- X,Y,Z Vertex 1 {m}
  13.6310703908387, 0, 0,                 !- X,Y,Z Vertex 2 {m}
  13.6310703908387, 6.81553519541936, 0,  !- X,Y,Z Vertex 3 {m}
  13.6310703908387, 6.81553519541936, 2.4384; !- X,Y,Z Vertex 4 {m}

OS:Surface,
  {fc5accb8-16b4-489c-9c53-e1bb18dcad3a}, !- Handle
  Surface 5,                              !- Name
  Wall,                                   !- Surface Type
  {de65db26-f4ee-4efb-a26b-fbced26a0bd2}, !- Construction Name
  {438f4464-156f-4dd4-9935-b5d0e6c8b129}, !- Space Name
  Outdoors,                               !- Outside Boundary Condition
  ,                                       !- Outside Boundary Condition Object
  SunExposed,                             !- Sun Exposure
  WindExposed,                            !- Wind Exposure
  ,                                       !- View Factor to Ground
  ,                                       !- Number of Vertices
  0, 0, 2.4384,                           !- X,Y,Z Vertex 1 {m}
  0, 0, 0,                                !- X,Y,Z Vertex 2 {m}
  13.6310703908387, 0, 0,                 !- X,Y,Z Vertex 3 {m}
  13.6310703908387, 0, 2.4384;            !- X,Y,Z Vertex 4 {m}

OS:Surface,
  {947bb60f-6d57-4ee1-bdf2-b0aaa0b19095}, !- Handle
  Surface 6,                              !- Name
  RoofCeiling,                            !- Surface Type
  {2d00613b-295b-4806-b18d-f075203284fe}, !- Construction Name
  {438f4464-156f-4dd4-9935-b5d0e6c8b129}, !- Space Name
  Surface,                                !- Outside Boundary Condition
  {c302d8cf-2c69-44a4-aaed-4c3f87ebc487}, !- Outside Boundary Condition Object
  NoSun,                                  !- Sun Exposure
  NoWind,                                 !- Wind Exposure
  ,                                       !- View Factor to Ground
  ,                                       !- Number of Vertices
  13.6310703908387, 0, 2.4384,            !- X,Y,Z Vertex 1 {m}
  13.6310703908387, 6.81553519541936, 2.4384, !- X,Y,Z Vertex 2 {m}
  0, 6.81553519541936, 2.4384,            !- X,Y,Z Vertex 3 {m}
  0, 0, 2.4384;                           !- X,Y,Z Vertex 4 {m}

OS:SpaceType,
  {e410f6fa-acfb-4a76-8865-2e223963f7af}, !- Handle
  Space Type 1,                           !- Name
  ,                                       !- Default Construction Set Name
  ,                                       !- Default Schedule Set Name
  ,                                       !- Group Rendering Name
  ,                                       !- Design Specification Outdoor Air Object Name
  ,                                       !- Standards Building Type
  living;                                 !- Standards Space Type

OS:Space,
  {492d4f48-564e-4f1c-b0d6-5f072be236a3}, !- Handle
  living space|story 2,                   !- Name
  {e410f6fa-acfb-4a76-8865-2e223963f7af}, !- Space Type Name
  ,                                       !- Default Construction Set Name
  ,                                       !- Default Schedule Set Name
  -0,                                     !- Direction of Relative North {deg}
  0,                                      !- X Origin {m}
  0,                                      !- Y Origin {m}
  2.4384,                                 !- Z Origin {m}
  ,                                       !- Building Story Name
  {b6a75ad2-3e27-43cc-a272-6433c22a4eba}, !- Thermal Zone Name
  ,                                       !- Part of Total Floor Area
  ,                                       !- Design Specification Outdoor Air Object Name
  {f4ee3b40-dbc8-46aa-a957-257029326fed}; !- Building Unit Name

OS:Surface,
  {c302d8cf-2c69-44a4-aaed-4c3f87ebc487}, !- Handle
  Surface 7,                              !- Name
  Floor,                                  !- Surface Type
  {2d00613b-295b-4806-b18d-f075203284fe}, !- Construction Name
  {492d4f48-564e-4f1c-b0d6-5f072be236a3}, !- Space Name
  Surface,                                !- Outside Boundary Condition
  {947bb60f-6d57-4ee1-bdf2-b0aaa0b19095}, !- Outside Boundary Condition Object
  NoSun,                                  !- Sun Exposure
  NoWind,                                 !- Wind Exposure
  ,                                       !- View Factor to Ground
  ,                                       !- Number of Vertices
  0, 0, 0,                                !- X,Y,Z Vertex 1 {m}
  0, 6.81553519541936, 0,                 !- X,Y,Z Vertex 2 {m}
  13.6310703908387, 6.81553519541936, 0,  !- X,Y,Z Vertex 3 {m}
  13.6310703908387, 0, 0;                 !- X,Y,Z Vertex 4 {m}

OS:Surface,
  {beb5a2dd-5b0b-476c-a704-538754b63f7c}, !- Handle
  Surface 8,                              !- Name
  Wall,                                   !- Surface Type
  {de65db26-f4ee-4efb-a26b-fbced26a0bd2}, !- Construction Name
  {492d4f48-564e-4f1c-b0d6-5f072be236a3}, !- Space Name
  Outdoors,                               !- Outside Boundary Condition
  ,                                       !- Outside Boundary Condition Object
  SunExposed,                             !- Sun Exposure
  WindExposed,                            !- Wind Exposure
  ,                                       !- View Factor to Ground
  ,                                       !- Number of Vertices
  0, 6.81553519541936, 2.4384,            !- X,Y,Z Vertex 1 {m}
  0, 6.81553519541936, 0,                 !- X,Y,Z Vertex 2 {m}
  0, 0, 0,                                !- X,Y,Z Vertex 3 {m}
  0, 0, 2.4384;                           !- X,Y,Z Vertex 4 {m}

OS:Surface,
  {36ce9fb7-6310-49f4-b91b-52b4a1ebdf11}, !- Handle
  Surface 9,                              !- Name
  Wall,                                   !- Surface Type
  {de65db26-f4ee-4efb-a26b-fbced26a0bd2}, !- Construction Name
  {492d4f48-564e-4f1c-b0d6-5f072be236a3}, !- Space Name
  Outdoors,                               !- Outside Boundary Condition
  ,                                       !- Outside Boundary Condition Object
  SunExposed,                             !- Sun Exposure
  WindExposed,                            !- Wind Exposure
  ,                                       !- View Factor to Ground
  ,                                       !- Number of Vertices
  13.6310703908387, 6.81553519541936, 2.4384, !- X,Y,Z Vertex 1 {m}
  13.6310703908387, 6.81553519541936, 0,  !- X,Y,Z Vertex 2 {m}
  0, 6.81553519541936, 0,                 !- X,Y,Z Vertex 3 {m}
  0, 6.81553519541936, 2.4384;            !- X,Y,Z Vertex 4 {m}

OS:Surface,
  {f2ba4e27-611e-41f8-9f35-a971e11d4a93}, !- Handle
  Surface 10,                             !- Name
  Wall,                                   !- Surface Type
  {de65db26-f4ee-4efb-a26b-fbced26a0bd2}, !- Construction Name
  {492d4f48-564e-4f1c-b0d6-5f072be236a3}, !- Space Name
  Outdoors,                               !- Outside Boundary Condition
  ,                                       !- Outside Boundary Condition Object
  SunExposed,                             !- Sun Exposure
  WindExposed,                            !- Wind Exposure
  ,                                       !- View Factor to Ground
  ,                                       !- Number of Vertices
  13.6310703908387, 0, 2.4384,            !- X,Y,Z Vertex 1 {m}
  13.6310703908387, 0, 0,                 !- X,Y,Z Vertex 2 {m}
  13.6310703908387, 6.81553519541936, 0,  !- X,Y,Z Vertex 3 {m}
  13.6310703908387, 6.81553519541936, 2.4384; !- X,Y,Z Vertex 4 {m}

OS:Surface,
  {2ff20463-dfb2-4edb-b94b-d94664bf17ec}, !- Handle
  Surface 11,                             !- Name
  Wall,                                   !- Surface Type
  {de65db26-f4ee-4efb-a26b-fbced26a0bd2}, !- Construction Name
  {492d4f48-564e-4f1c-b0d6-5f072be236a3}, !- Space Name
  Outdoors,                               !- Outside Boundary Condition
  ,                                       !- Outside Boundary Condition Object
  SunExposed,                             !- Sun Exposure
  WindExposed,                            !- Wind Exposure
  ,                                       !- View Factor to Ground
  ,                                       !- Number of Vertices
  0, 0, 2.4384,                           !- X,Y,Z Vertex 1 {m}
  0, 0, 0,                                !- X,Y,Z Vertex 2 {m}
  13.6310703908387, 0, 0,                 !- X,Y,Z Vertex 3 {m}
  13.6310703908387, 0, 2.4384;            !- X,Y,Z Vertex 4 {m}

OS:Surface,
  {8344b176-fe19-42d7-98b5-efaae102f6ac}, !- Handle
  Surface 12,                             !- Name
  RoofCeiling,                            !- Surface Type
  {7bc6d845-f5f9-4374-9196-20ebd9edd80b}, !- Construction Name
  {492d4f48-564e-4f1c-b0d6-5f072be236a3}, !- Space Name
  Surface,                                !- Outside Boundary Condition
  {b546dcd9-c3c9-4dca-a696-c5aef28d545f}, !- Outside Boundary Condition Object
  NoSun,                                  !- Sun Exposure
  NoWind,                                 !- Wind Exposure
  ,                                       !- View Factor to Ground
  ,                                       !- Number of Vertices
  13.6310703908387, 0, 2.4384,            !- X,Y,Z Vertex 1 {m}
  13.6310703908387, 6.81553519541936, 2.4384, !- X,Y,Z Vertex 2 {m}
  0, 6.81553519541936, 2.4384,            !- X,Y,Z Vertex 3 {m}
  0, 0, 2.4384;                           !- X,Y,Z Vertex 4 {m}

OS:Surface,
  {b546dcd9-c3c9-4dca-a696-c5aef28d545f}, !- Handle
  Surface 13,                             !- Name
  Floor,                                  !- Surface Type
  {b163dcdd-f6c7-44dd-b40a-e61ced9a54b0}, !- Construction Name
  {57323fae-e083-4e17-b5b5-8c3b30b01c06}, !- Space Name
  Surface,                                !- Outside Boundary Condition
  {8344b176-fe19-42d7-98b5-efaae102f6ac}, !- Outside Boundary Condition Object
  NoSun,                                  !- Sun Exposure
  NoWind,                                 !- Wind Exposure
  ,                                       !- View Factor to Ground
  ,                                       !- Number of Vertices
  0, 6.81553519541936, 0,                 !- X,Y,Z Vertex 1 {m}
  13.6310703908387, 6.81553519541936, 0,  !- X,Y,Z Vertex 2 {m}
  13.6310703908387, 0, 0,                 !- X,Y,Z Vertex 3 {m}
  0, 0, 0;                                !- X,Y,Z Vertex 4 {m}

OS:Surface,
  {070c7cb9-78d2-4900-8c71-17fcf7486859}, !- Handle
  Surface 14,                             !- Name
  RoofCeiling,                            !- Surface Type
  {de05c4e5-07a5-4aba-904d-50a49a07d161}, !- Construction Name
  {57323fae-e083-4e17-b5b5-8c3b30b01c06}, !- Space Name
  Outdoors,                               !- Outside Boundary Condition
  ,                                       !- Outside Boundary Condition Object
  SunExposed,                             !- Sun Exposure
  WindExposed,                            !- Wind Exposure
  ,                                       !- View Factor to Ground
  ,                                       !- Number of Vertices
  13.6310703908387, 3.40776759770968, 1.70388379885484, !- X,Y,Z Vertex 1 {m}
  0, 3.40776759770968, 1.70388379885484,  !- X,Y,Z Vertex 2 {m}
  0, 0, 0,                                !- X,Y,Z Vertex 3 {m}
  13.6310703908387, 0, 0;                 !- X,Y,Z Vertex 4 {m}

OS:Surface,
  {d2332987-2f0c-4085-8e50-e1c2a53f7f83}, !- Handle
  Surface 15,                             !- Name
  RoofCeiling,                            !- Surface Type
  {de05c4e5-07a5-4aba-904d-50a49a07d161}, !- Construction Name
  {57323fae-e083-4e17-b5b5-8c3b30b01c06}, !- Space Name
  Outdoors,                               !- Outside Boundary Condition
  ,                                       !- Outside Boundary Condition Object
  SunExposed,                             !- Sun Exposure
  WindExposed,                            !- Wind Exposure
  ,                                       !- View Factor to Ground
  ,                                       !- Number of Vertices
  0, 3.40776759770968, 1.70388379885484,  !- X,Y,Z Vertex 1 {m}
  13.6310703908387, 3.40776759770968, 1.70388379885484, !- X,Y,Z Vertex 2 {m}
  13.6310703908387, 6.81553519541936, 0,  !- X,Y,Z Vertex 3 {m}
  0, 6.81553519541936, 0;                 !- X,Y,Z Vertex 4 {m}

OS:Surface,
  {6ef8857f-21fd-4c3a-a3e6-cc8f2584f7e5}, !- Handle
  Surface 16,                             !- Name
  Wall,                                   !- Surface Type
  {a65ace98-8d2d-474b-9386-18cb8767e4db}, !- Construction Name
  {57323fae-e083-4e17-b5b5-8c3b30b01c06}, !- Space Name
  Outdoors,                               !- Outside Boundary Condition
  ,                                       !- Outside Boundary Condition Object
  SunExposed,                             !- Sun Exposure
  WindExposed,                            !- Wind Exposure
  ,                                       !- View Factor to Ground
  ,                                       !- Number of Vertices
  0, 3.40776759770968, 1.70388379885484,  !- X,Y,Z Vertex 1 {m}
  0, 6.81553519541936, 0,                 !- X,Y,Z Vertex 2 {m}
  0, 0, 0;                                !- X,Y,Z Vertex 3 {m}

OS:Surface,
  {d164793e-d26a-4ca0-8bc8-31b5f7836381}, !- Handle
  Surface 17,                             !- Name
  Wall,                                   !- Surface Type
  {a65ace98-8d2d-474b-9386-18cb8767e4db}, !- Construction Name
  {57323fae-e083-4e17-b5b5-8c3b30b01c06}, !- Space Name
  Outdoors,                               !- Outside Boundary Condition
  ,                                       !- Outside Boundary Condition Object
  SunExposed,                             !- Sun Exposure
  WindExposed,                            !- Wind Exposure
  ,                                       !- View Factor to Ground
  ,                                       !- Number of Vertices
  13.6310703908387, 3.40776759770968, 1.70388379885484, !- X,Y,Z Vertex 1 {m}
  13.6310703908387, 0, 0,                 !- X,Y,Z Vertex 2 {m}
  13.6310703908387, 6.81553519541936, 0;  !- X,Y,Z Vertex 3 {m}

OS:Space,
  {57323fae-e083-4e17-b5b5-8c3b30b01c06}, !- Handle
  unfinished attic space,                 !- Name
  {93269ad6-b1f6-44c8-b4e1-37155b39031a}, !- Space Type Name
  ,                                       !- Default Construction Set Name
  ,                                       !- Default Schedule Set Name
  -0,                                     !- Direction of Relative North {deg}
  0,                                      !- X Origin {m}
  0,                                      !- Y Origin {m}
  4.8768,                                 !- Z Origin {m}
  ,                                       !- Building Story Name
  {759ec50e-32c0-448b-814a-a1aab7468a9e}; !- Thermal Zone Name

OS:ThermalZone,
  {759ec50e-32c0-448b-814a-a1aab7468a9e}, !- Handle
  unfinished attic zone,                  !- Name
  ,                                       !- Multiplier
  ,                                       !- Ceiling Height {m}
  ,                                       !- Volume {m3}
  ,                                       !- Floor Area {m2}
  ,                                       !- Zone Inside Convection Algorithm
  ,                                       !- Zone Outside Convection Algorithm
  ,                                       !- Zone Conditioning Equipment List Name
  {0d2107ae-15fc-474a-ae87-6357fd3cf82e}, !- Zone Air Inlet Port List
  {14cbadeb-8c7a-4805-ac37-7319b13788cb}, !- Zone Air Exhaust Port List
  {a7fd953a-95c5-4192-8c05-472c71b02af9}, !- Zone Air Node Name
  ,                                       !- Zone Return Air Node Name
  ,                                       !- Primary Daylighting Control Name
  ,                                       !- Fraction of Zone Controlled by Primary Daylighting Control
  ,                                       !- Secondary Daylighting Control Name
  ,                                       !- Fraction of Zone Controlled by Secondary Daylighting Control
  ,                                       !- Illuminance Map Name
  ,                                       !- Group Rendering Name
  ,                                       !- Thermostat Name
  No;                                     !- Use Ideal Air Loads

OS:Node,
  {424a0ce9-6acf-41d2-bac2-2726fc1cb7c3}, !- Handle
  Node 2,                                 !- Name
  {a7fd953a-95c5-4192-8c05-472c71b02af9}, !- Inlet Port
  ;                                       !- Outlet Port

OS:Connection,
  {a7fd953a-95c5-4192-8c05-472c71b02af9}, !- Handle
  {7d135c73-323e-4025-819b-2c3d712f8c90}, !- Name