!- NOTE: Auto-generated from /test/osw_files/SFD_2000sqft_2story_FB_GRG_UA_3Beds_2Baths_Denver_WHTankless_SHW.osw

OS:Version,
  {2fdc3ea5-0ced-4efb-93d0-aa836a10a358}, !- Handle
  2.7.0;                                  !- Version Identifier

OS:Building,
  {627ddd95-5329-425a-aa8d-20a384d18013}, !- Handle
  Building 1,                             !- Name
  ,                                       !- Building Sector Type
  0,                                      !- North Axis {deg}
  ,                                       !- Nominal Floor to Floor Height {m}
  ,                                       !- Space Type Name
  ,                                       !- Default Construction Set Name
  ,                                       !- Default Schedule Set Name
  3,                                      !- Standards Number of Stories
  2,                                      !- Standards Number of Above Ground Stories
  ,                                       !- Standards Template
  singlefamilydetached,                   !- Standards Building Type
  1;                                      !- Standards Number of Living Units

OS:Facility,
  {7909aa31-34dc-4b36-bb47-12e945d95ccd}; !- Handle

OS:Site,
  {2356368c-e5af-4447-9c4e-dcfb77727a76}, !- Handle
  Denver Intl Ap_CO_USA,                  !- Name
  39.83,                                  !- Latitude {deg}
  -104.65,                                !- Longitude {deg}
  -7,                                     !- Time Zone {hr}
  1650,                                   !- Elevation {m}
  ;                                       !- Terrain

OS:SimulationControl,
  {fc30600a-ec0c-4787-9681-5a3d8a02c0fd}, !- Handle
  ,                                       !- Do Zone Sizing Calculation
  ,                                       !- Do System Sizing Calculation
  ,                                       !- Do Plant Sizing Calculation
  No;                                     !- Run Simulation for Sizing Periods

OS:Sizing:Parameters,
  {be9ae338-ac3d-4778-a775-98238ab978a2}, !- Handle
  1.25,                                   !- Heating Sizing Factor
  1.15;                                   !- Cooling Sizing Factor

OS:Timestep,
  {f72c77a6-32ed-4bf7-9065-4984ec09b543}, !- Handle
  6;                                      !- Number of Timesteps per Hour

OS:ShadowCalculation,
  {50817558-b049-4a24-a268-42153453438e}, !- Handle
  20,                                     !- Calculation Frequency
  200;                                    !- Maximum Figures in Shadow Overlap Calculations

OS:HeatBalanceAlgorithm,
  {6e3d3db0-6e59-4c16-8695-bd87907c3419}, !- Handle
  MoisturePenetrationDepthConductionTransferFunction, !- Algorithm
  200;                                    !- Surface Temperature Upper Limit {C}

OS:RunPeriod,
  {3bfc3ffb-21ff-40c0-9f42-d0f7773c6897}, !- Handle
  Run Period 1,                           !- Name
  1,                                      !- Begin Month
  1,                                      !- Begin Day of Month
  12,                                     !- End Month
  31,                                     !- End Day of Month
  ,                                       !- Use Weather File Holidays and Special Days
  ,                                       !- Use Weather File Daylight Saving Period
  ,                                       !- Apply Weekend Holiday Rule
  ,                                       !- Use Weather File Rain Indicators
  ,                                       !- Use Weather File Snow Indicators
  ;                                       !- Number of Times Runperiod to be Repeated

OS:LifeCycleCost:Parameters,
  {933fed1f-01b9-4ef4-9ddb-1cc0825c280e}, !- Handle
  ,                                       !- Analysis Type
  ,                                       !- Discounting Convention
  ,                                       !- Inflation Approach
  ,                                       !- Real Discount Rate
  ,                                       !- Nominal Discount Rate
  ,                                       !- Inflation
  ,                                       !- Base Date Month
  ,                                       !- Base Date Year
  ,                                       !- Service Date Month
  ,                                       !- Service Date Year
  ;                                       !- Length of Study Period in Years

OS:SurfaceConvectionAlgorithm:Outside,
  {09fda5e5-e6e8-43c8-a2ec-6c2e14d6c891}, !- Handle
  DOE-2;                                  !- Algorithm

OS:SurfaceConvectionAlgorithm:Inside,
  {c0937ea1-958a-4de9-955b-6f9fab5508ca}, !- Handle
  TARP;                                   !- Algorithm

OS:ZoneCapacitanceMultiplier:ResearchSpecial,
  {a285c04b-9e5a-4a43-9f3b-a25cfe2b3b2c}, !- Handle
  ,                                       !- Temperature Capacity Multiplier
  1,                                      !- Humidity Capacity Multiplier
  ;                                       !- Carbon Dioxide Capacity Multiplier

OS:ThermalZone,
  {e804b15f-a000-4098-8ba7-beeb2372abd8}, !- Handle
  living zone,                            !- Name
  ,                                       !- Multiplier
  ,                                       !- Ceiling Height {m}
  ,                                       !- Volume {m3}
  ,                                       !- Floor Area {m2}
  ,                                       !- Zone Inside Convection Algorithm
  ,                                       !- Zone Outside Convection Algorithm
  ,                                       !- Zone Conditioning Equipment List Name
  {d9ad0060-96c8-4a74-9281-05c0e2155ebb}, !- Zone Air Inlet Port List
  {00579134-0870-48ec-87e8-d91bd2c89301}, !- Zone Air Exhaust Port List
  {8a6ba1ac-5879-43cf-93e9-982e00ddff93}, !- Zone Air Node Name
  {9b13c5bc-0fe4-4a71-a590-65653553adc7}, !- Zone Return Air Port List
  ,                                       !- Primary Daylighting Control Name
  ,                                       !- Fraction of Zone Controlled by Primary Daylighting Control
  ,                                       !- Secondary Daylighting Control Name
  ,                                       !- Fraction of Zone Controlled by Secondary Daylighting Control
  ,                                       !- Illuminance Map Name
  ,                                       !- Group Rendering Name
  ,                                       !- Thermostat Name
  No;                                     !- Use Ideal Air Loads

OS:Node,
  {180ccd5d-cb82-49bd-b514-647335920cc7}, !- Handle
  Node 1,                                 !- Name
  {8a6ba1ac-5879-43cf-93e9-982e00ddff93}, !- Inlet Port
  ;                                       !- Outlet Port

OS:Connection,
  {8a6ba1ac-5879-43cf-93e9-982e00ddff93}, !- Handle
  {4a3981b3-5718-431c-b60b-851bcda2c72c}, !- Name
  {e804b15f-a000-4098-8ba7-beeb2372abd8}, !- Source Object
  11,                                     !- Outlet Port
  {180ccd5d-cb82-49bd-b514-647335920cc7}, !- Target Object
  2;                                      !- Inlet Port

OS:PortList,
  {d9ad0060-96c8-4a74-9281-05c0e2155ebb}, !- Handle
  {690c51ec-bea1-477e-be69-f52d351b7d1e}, !- Name
  {e804b15f-a000-4098-8ba7-beeb2372abd8}; !- HVAC Component

OS:PortList,
  {00579134-0870-48ec-87e8-d91bd2c89301}, !- Handle
  {1b790efd-46a1-4065-b978-6ed843455d15}, !- Name
  {e804b15f-a000-4098-8ba7-beeb2372abd8}; !- HVAC Component

OS:PortList,
  {9b13c5bc-0fe4-4a71-a590-65653553adc7}, !- Handle
  {faad2fdc-4a86-4d1e-bc85-905c82f1e5e4}, !- Name
  {e804b15f-a000-4098-8ba7-beeb2372abd8}; !- HVAC Component

OS:Sizing:Zone,
  {eac0f3a7-d761-4315-b9e7-af61d9dabbf0}, !- Handle
  {e804b15f-a000-4098-8ba7-beeb2372abd8}, !- Zone or ZoneList Name
  SupplyAirTemperature,                   !- Zone Cooling Design Supply Air Temperature Input Method
  14,                                     !- Zone Cooling Design Supply Air Temperature {C}
  11.11,                                  !- Zone Cooling Design Supply Air Temperature Difference {deltaC}
  SupplyAirTemperature,                   !- Zone Heating Design Supply Air Temperature Input Method
  40,                                     !- Zone Heating Design Supply Air Temperature {C}
  11.11,                                  !- Zone Heating Design Supply Air Temperature Difference {deltaC}
  0.0085,                                 !- Zone Cooling Design Supply Air Humidity Ratio {kg-H2O/kg-air}
  0.008,                                  !- Zone Heating Design Supply Air Humidity Ratio {kg-H2O/kg-air}
  ,                                       !- Zone Heating Sizing Factor
  ,                                       !- Zone Cooling Sizing Factor
  DesignDay,                              !- Cooling Design Air Flow Method
  ,                                       !- Cooling Design Air Flow Rate {m3/s}
  ,                                       !- Cooling Minimum Air Flow per Zone Floor Area {m3/s-m2}
  ,                                       !- Cooling Minimum Air Flow {m3/s}
  ,                                       !- Cooling Minimum Air Flow Fraction
  DesignDay,                              !- Heating Design Air Flow Method
  ,                                       !- Heating Design Air Flow Rate {m3/s}
  ,                                       !- Heating Maximum Air Flow per Zone Floor Area {m3/s-m2}
  ,                                       !- Heating Maximum Air Flow {m3/s}
  ,                                       !- Heating Maximum Air Flow Fraction
  ,                                       !- Design Zone Air Distribution Effectiveness in Cooling Mode
  ,                                       !- Design Zone Air Distribution Effectiveness in Heating Mode
  No,                                     !- Account for Dedicated Outdoor Air System
  NeutralSupplyAir,                       !- Dedicated Outdoor Air System Control Strategy
  autosize,                               !- Dedicated Outdoor Air Low Setpoint Temperature for Design {C}
  autosize;                               !- Dedicated Outdoor Air High Setpoint Temperature for Design {C}

OS:ZoneHVAC:EquipmentList,
  {58087f39-ad9c-41ff-b2ec-654777fd34a9}, !- Handle
  Zone HVAC Equipment List 1,             !- Name
  {e804b15f-a000-4098-8ba7-beeb2372abd8}; !- Thermal Zone

OS:ThermalZone,
  {5c8e300b-b30f-4f44-b1cd-4d0baf8472ea}, !- Handle
  garage zone,                            !- Name
  ,                                       !- Multiplier
  ,                                       !- Ceiling Height {m}
  ,                                       !- Volume {m3}
  ,                                       !- Floor Area {m2}
  ,                                       !- Zone Inside Convection Algorithm
  ,                                       !- Zone Outside Convection Algorithm
  ,                                       !- Zone Conditioning Equipment List Name
  {3224f14a-5c97-4f7a-8d6c-46c60a32acf1}, !- Zone Air Inlet Port List
  {dd90bf96-941d-4066-8a45-1960e50277db}, !- Zone Air Exhaust Port List
  {bf2fe155-8861-4df6-8ab8-b71c01665219}, !- Zone Air Node Name
  {dda03181-4ffc-4eaf-af1f-c2db2f738bf4}, !- Zone Return Air Port List
  ,                                       !- Primary Daylighting Control Name
  ,                                       !- Fraction of Zone Controlled by Primary Daylighting Control
  ,                                       !- Secondary Daylighting Control Name
  ,                                       !- Fraction of Zone Controlled by Secondary Daylighting Control
  ,                                       !- Illuminance Map Name
  ,                                       !- Group Rendering Name
  ,                                       !- Thermostat Name
  No;                                     !- Use Ideal Air Loads

OS:Node,
  {5ba29b25-f1d1-4aac-b476-8b5644752c42}, !- Handle
  Node 2,                                 !- Name
  {bf2fe155-8861-4df6-8ab8-b71c01665219}, !- Inlet Port
  ;                                       !- Outlet Port

OS:Connection,
  {bf2fe155-8861-4df6-8ab8-b71c01665219}, !- Handle
  {9b21c296-d4a9-4614-b50f-05016f0675ab}, !- Name
  {5c8e300b-b30f-4f44-b1cd-4d0baf8472ea}, !- Source Object
  11,                                     !- Outlet Port
  {5ba29b25-f1d1-4aac-b476-8b5644752c42}, !- Target Object
  2;                                      !- Inlet Port

OS:PortList,
  {3224f14a-5c97-4f7a-8d6c-46c60a32acf1}, !- Handle
  {b391e3eb-c579-4f93-87ba-92857a9d2599}, !- Name
  {5c8e300b-b30f-4f44-b1cd-4d0baf8472ea}; !- HVAC Component

OS:PortList,
  {dd90bf96-941d-4066-8a45-1960e50277db}, !- Handle
  {e1d489ba-4d55-43ef-88a9-c6fc6b168963}, !- Name
  {5c8e300b-b30f-4f44-b1cd-4d0baf8472ea}; !- HVAC Component

OS:PortList,
  {dda03181-4ffc-4eaf-af1f-c2db2f738bf4}, !- Handle
  {5fe2fb66-11c7-4e78-9978-e386c9661436}, !- Name
  {5c8e300b-b30f-4f44-b1cd-4d0baf8472ea}; !- HVAC Component

OS:Sizing:Zone,
  {7ee4bf8b-1e2a-4e08-bd7e-87aa305138a2}, !- Handle
  {5c8e300b-b30f-4f44-b1cd-4d0baf8472ea}, !- Zone or ZoneList Name
  SupplyAirTemperature,                   !- Zone Cooling Design Supply Air Temperature Input Method
  14,                                     !- Zone Cooling Design Supply Air Temperature {C}
  11.11,                                  !- Zone Cooling Design Supply Air Temperature Difference {deltaC}
  SupplyAirTemperature,                   !- Zone Heating Design Supply Air Temperature Input Method
  40,                                     !- Zone Heating Design Supply Air Temperature {C}
  11.11,                                  !- Zone Heating Design Supply Air Temperature Difference {deltaC}
  0.0085,                                 !- Zone Cooling Design Supply Air Humidity Ratio {kg-H2O/kg-air}
  0.008,                                  !- Zone Heating Design Supply Air Humidity Ratio {kg-H2O/kg-air}
  ,                                       !- Zone Heating Sizing Factor
  ,                                       !- Zone Cooling Sizing Factor
  DesignDay,                              !- Cooling Design Air Flow Method
  ,                                       !- Cooling Design Air Flow Rate {m3/s}
  ,                                       !- Cooling Minimum Air Flow per Zone Floor Area {m3/s-m2}
  ,                                       !- Cooling Minimum Air Flow {m3/s}
  ,                                       !- Cooling Minimum Air Flow Fraction
  DesignDay,                              !- Heating Design Air Flow Method
  ,                                       !- Heating Design Air Flow Rate {m3/s}
  ,                                       !- Heating Maximum Air Flow per Zone Floor Area {m3/s-m2}
  ,                                       !- Heating Maximum Air Flow {m3/s}
  ,                                       !- Heating Maximum Air Flow Fraction
  ,                                       !- Design Zone Air Distribution Effectiveness in Cooling Mode
  ,                                       !- Design Zone Air Distribution Effectiveness in Heating Mode
  No,                                     !- Account for Dedicated Outdoor Air System
  NeutralSupplyAir,                       !- Dedicated Outdoor Air System Control Strategy
  autosize,                               !- Dedicated Outdoor Air Low Setpoint Temperature for Design {C}
  autosize;                               !- Dedicated Outdoor Air High Setpoint Temperature for Design {C}

OS:ZoneHVAC:EquipmentList,
  {326cf96d-c60e-483e-b9fa-565ba88f2af8}, !- Handle
  Zone HVAC Equipment List 2,             !- Name
  {5c8e300b-b30f-4f44-b1cd-4d0baf8472ea}; !- Thermal Zone

OS:Space,
  {b5ae0831-7250-4873-a9a9-5bc81cb36338}, !- Handle
  garage space,                           !- Name
  {1b4ebe19-5342-4347-8aa8-d39de3589d28}, !- Space Type Name
  ,                                       !- Default Construction Set Name
  ,                                       !- Default Schedule Set Name
  -0,                                     !- Direction of Relative North {deg}
  0,                                      !- X Origin {m}
  0,                                      !- Y Origin {m}
  0,                                      !- Z Origin {m}
  ,                                       !- Building Story Name
  {5c8e300b-b30f-4f44-b1cd-4d0baf8472ea}; !- Thermal Zone Name

OS:Surface,
  {08dede8f-7bc9-469b-969f-b7285c0c2caf}, !- Handle
  Surface 1,                              !- Name
  Floor,                                  !- Surface Type
  ,                                       !- Construction Name
  {b5ae0831-7250-4873-a9a9-5bc81cb36338}, !- Space Name
  Foundation,                             !- Outside Boundary Condition
  ,                                       !- Outside Boundary Condition Object
  NoSun,                                  !- Sun Exposure
  NoWind,                                 !- Wind Exposure
  ,                                       !- View Factor to Ground
  ,                                       !- Number of Vertices
  5.57695129776527, -3.048, 0,            !- X,Y,Z Vertex 1 {m}
  5.57695129776527, 3.048, 0,             !- X,Y,Z Vertex 2 {m}
  11.6729512977653, 3.048, 0,             !- X,Y,Z Vertex 3 {m}
  11.6729512977653, -3.048, 0;            !- X,Y,Z Vertex 4 {m}

OS:Surface,
  {8c2ea404-d018-4220-afe5-359984ea247a}, !- Handle
  Surface 2,                              !- Name
  Wall,                                   !- Surface Type
  ,                                       !- Construction Name
  {b5ae0831-7250-4873-a9a9-5bc81cb36338}, !- Space Name
  Surface,                                !- Outside Boundary Condition
  {83347f80-6cbe-4f77-97c2-510bff02e42b}, !- Outside Boundary Condition Object
  NoSun,                                  !- Sun Exposure
  NoWind,                                 !- Wind Exposure
  ,                                       !- View Factor to Ground
  ,                                       !- Number of Vertices
  5.57695129776527, 3.048, 2.4384,        !- X,Y,Z Vertex 1 {m}
  5.57695129776527, 3.048, 0,             !- X,Y,Z Vertex 2 {m}
  5.57695129776527, 0, 0,                 !- X,Y,Z Vertex 3 {m}
  5.57695129776527, 0, 2.4384;            !- X,Y,Z Vertex 4 {m}

OS:Surface,
  {2eac1147-0ca5-4199-bf5b-c2d5715056fe}, !- Handle
  Surface 3,                              !- Name
  Wall,                                   !- Surface Type
  ,                                       !- Construction Name
  {b5ae0831-7250-4873-a9a9-5bc81cb36338}, !- Space Name
  Surface,                                !- Outside Boundary Condition
  {7589ec07-9d80-45ab-9e88-fbd9f35bf647}, !- Outside Boundary Condition Object
  NoSun,                                  !- Sun Exposure
  NoWind,                                 !- Wind Exposure
  ,                                       !- View Factor to Ground
  ,                                       !- Number of Vertices
  11.6729512977653, 3.048, 2.4384,        !- X,Y,Z Vertex 1 {m}
  11.6729512977653, 3.048, 0,             !- X,Y,Z Vertex 2 {m}
  5.57695129776527, 3.048, 0,             !- X,Y,Z Vertex 3 {m}
  5.57695129776527, 3.048, 2.4384;        !- X,Y,Z Vertex 4 {m}

OS:Surface,
  {1f4d7ad2-bf4c-4eff-b859-f9c23579b5fe}, !- Handle
  Surface 4,                              !- Name
  Wall,                                   !- Surface Type
  ,                                       !- Construction Name
  {b5ae0831-7250-4873-a9a9-5bc81cb36338}, !- Space Name
  Outdoors,                               !- Outside Boundary Condition
  ,                                       !- Outside Boundary Condition Object
  SunExposed,                             !- Sun Exposure
  WindExposed,                            !- Wind Exposure
  ,                                       !- View Factor to Ground
  ,                                       !- Number of Vertices
  11.6729512977653, -3.048, 2.4384,       !- X,Y,Z Vertex 1 {m}
  11.6729512977653, -3.048, 0,            !- X,Y,Z Vertex 2 {m}
  11.6729512977653, 3.048, 0,             !- X,Y,Z Vertex 3 {m}
  11.6729512977653, 3.048, 2.4384;        !- X,Y,Z Vertex 4 {m}

OS:Surface,
  {45a1776f-ba4f-4d36-8e47-12b3846686db}, !- Handle
  Surface 5,                              !- Name
  Wall,                                   !- Surface Type
  ,                                       !- Construction Name
  {b5ae0831-7250-4873-a9a9-5bc81cb36338}, !- Space Name
  Outdoors,                               !- Outside Boundary Condition
  ,                                       !- Outside Boundary Condition Object
  SunExposed,                             !- Sun Exposure
  WindExposed,                            !- Wind Exposure
  ,                                       !- View Factor to Ground
  ,                                       !- Number of Vertices
  5.57695129776527, -3.048, 2.4384,       !- X,Y,Z Vertex 1 {m}
  5.57695129776527, -3.048, 0,            !- X,Y,Z Vertex 2 {m}
  11.6729512977653, -3.048, 0,            !- X,Y,Z Vertex 3 {m}
  11.6729512977653, -3.048, 2.4384;       !- X,Y,Z Vertex 4 {m}

OS:Surface,
  {31a7dc4d-03f8-4042-90f0-b8ef6a24d259}, !- Handle
  Surface 6,                              !- Name
  RoofCeiling,                            !- Surface Type
  ,                                       !- Construction Name
  {b5ae0831-7250-4873-a9a9-5bc81cb36338}, !- Space Name
  Surface,                                !- Outside Boundary Condition
  {d8722745-bb7c-4b48-b902-4669a58ed12d}, !- Outside Boundary Condition Object
  NoSun,                                  !- Sun Exposure
  NoWind,                                 !- Wind Exposure
  ,                                       !- View Factor to Ground
  ,                                       !- Number of Vertices
  11.6729512977653, -3.048, 2.4384,       !- X,Y,Z Vertex 1 {m}
  11.6729512977653, 3.048, 2.4384,        !- X,Y,Z Vertex 2 {m}
  5.57695129776527, 3.048, 2.4384,        !- X,Y,Z Vertex 3 {m}
  5.57695129776527, -3.048, 2.4384;       !- X,Y,Z Vertex 4 {m}

OS:SpaceType,
  {1b4ebe19-5342-4347-8aa8-d39de3589d28}, !- Handle
  Space Type 1,                           !- Name
  ,                                       !- Default Construction Set Name
  ,                                       !- Default Schedule Set Name
  ,                                       !- Group Rendering Name
  ,                                       !- Design Specification Outdoor Air Object Name
  ,                                       !- Standards Template
  ,                                       !- Standards Building Type
  garage;                                 !- Standards Space Type

OS:InternalMass:Definition,
  {c8804bba-31dc-47ac-8cee-33c268f6bb89}, !- Handle
  residential empd dummy garage space,    !- Name
  {898aec6c-5292-4c07-931e-e36c936ba193}, !- Construction Name
  SurfaceArea,                            !- Design Level Calculation Method
  37.1612160000002,                       !- Surface Area {m2}
  ,                                       !- Surface Area per Space Floor Area {dimensionless}
  ;                                       !- Surface Area per Person {m2/person}

OS:InternalMass,
  {2df86c6e-18b9-4fca-aedb-4c30b83ac2b9}, !- Handle
  residential empd dummy garage space,    !- Name
  {c8804bba-31dc-47ac-8cee-33c268f6bb89}, !- Internal Mass Definition Name
  {b5ae0831-7250-4873-a9a9-5bc81cb36338}, !- Space or SpaceType Name
  1;                                      !- Multiplier

OS:Material,
  {fc014088-736d-47d8-9f8a-ad566487df49}, !- Handle
  residential empd dummy,                 !- Name
  Rough,                                  !- Roughness
  0.001,                                  !- Thickness {m}
  0.1,                                    !- Conductivity {W/m-K}
  100,                                    !- Density {kg/m3}
  100,                                    !- Specific Heat {J/kg-K}
  0.9,                                    !- Thermal Absorptance
  0.5,                                    !- Solar Absorptance
  0.1;                                    !- Visible Absorptance

OS:MaterialProperty:MoisturePenetrationDepth:Settings,
  {3c0a110a-8246-48cb-a3a9-0fa68fae25e1}, !- Handle
  {fc014088-736d-47d8-9f8a-ad566487df49}, !- Material Name
  500,                                    !- Water Vapor Diffusion Resistance Factor {dimensionless}
  0.0069,                                 !- Moisture Equation Coefficient a {dimensionless}
  0.9066,                                 !- Moisture Equation Coefficient b {dimensionless}
  0.0404,                                 !- Moisture Equation Coefficient c {dimensionless}
  22.1121,                                !- Moisture Equation Coefficient d {dimensionless}
  0.1,                                    !- Surface Layer Penetration Depth {m}
  0,                                      !- Deep Layer Penetration Depth {m}
  0,                                      !- Coating Layer Thickness {m}
  0;                                      !- Coating Layer Water Vapor Diffusion Resistance Factor {dimensionless}

OS:Construction,
  {898aec6c-5292-4c07-931e-e36c936ba193}, !- Handle
  residential empd dummy,                 !- Name
  ,                                       !- Surface Rendering Name
  {fc014088-736d-47d8-9f8a-ad566487df49}; !- Layer 1

OS:Space,
  {6e0eabb9-7d4a-4304-aa31-c413b998641e}, !- Handle
  living space,                           !- Name
  {254b57d2-9913-4a72-8fde-fa777e136754}, !- Space Type Name
  ,                                       !- Default Construction Set Name
  ,                                       !- Default Schedule Set Name
  -0,                                     !- Direction of Relative North {deg}
  0,                                      !- X Origin {m}
  0,                                      !- Y Origin {m}
  0,                                      !- Z Origin {m}
  ,                                       !- Building Story Name
  {e804b15f-a000-4098-8ba7-beeb2372abd8}, !- Thermal Zone Name
  ,                                       !- Part of Total Floor Area
  ,                                       !- Design Specification Outdoor Air Object Name
  {a64a622d-0d07-4cb8-bf67-9e305b7040ed}; !- Building Unit Name

OS:Surface,
  {6d8005e3-42ae-47f3-af29-f5a45895b5d4}, !- Handle
  Surface 7,                              !- Name
  Floor,                                  !- Surface Type
  ,                                       !- Construction Name
  {6e0eabb9-7d4a-4304-aa31-c413b998641e}, !- Space Name
  Surface,                                !- Outside Boundary Condition
  {e6f637ba-4cd3-420d-871e-e8a4a7b08845}, !- Outside Boundary Condition Object
  NoSun,                                  !- Sun Exposure
  NoWind,                                 !- Wind Exposure
  ,                                       !- View Factor to Ground
  ,                                       !- Number of Vertices
  0, 0, 0,                                !- X,Y,Z Vertex 1 {m}
  0, 5.83647564888264, 0,                 !- X,Y,Z Vertex 2 {m}
  11.6729512977653, 5.83647564888264, 0,  !- X,Y,Z Vertex 3 {m}
  11.6729512977653, 3.048, 0,             !- X,Y,Z Vertex 4 {m}
  5.57695129776527, 3.048, 0,             !- X,Y,Z Vertex 5 {m}
  5.57695129776527, 0, 0;                 !- X,Y,Z Vertex 6 {m}

OS:Surface,
  {c0a582d1-d92e-49cb-9bb1-ba31d8e6f541}, !- Handle
  Surface 8,                              !- Name
  Wall,                                   !- Surface Type
  ,                                       !- Construction Name
  {6e0eabb9-7d4a-4304-aa31-c413b998641e}, !- Space Name
  Outdoors,                               !- Outside Boundary Condition
  ,                                       !- Outside Boundary Condition Object
  SunExposed,                             !- Sun Exposure
  WindExposed,                            !- Wind Exposure
  ,                                       !- View Factor to Ground
  ,                                       !- Number of Vertices
  0, 5.83647564888264, 2.4384,            !- X,Y,Z Vertex 1 {m}
  0, 5.83647564888264, 0,                 !- X,Y,Z Vertex 2 {m}
  0, 0, 0,                                !- X,Y,Z Vertex 3 {m}
  0, 0, 2.4384;                           !- X,Y,Z Vertex 4 {m}

OS:Surface,
  {a5fbdac1-8dcc-4ee8-8eff-6272850d859d}, !- Handle
  Surface 9,                              !- Name
  Wall,                                   !- Surface Type
  ,                                       !- Construction Name
  {6e0eabb9-7d4a-4304-aa31-c413b998641e}, !- Space Name
  Outdoors,                               !- Outside Boundary Condition
  ,                                       !- Outside Boundary Condition Object
  SunExposed,                             !- Sun Exposure
  WindExposed,                            !- Wind Exposure
  ,                                       !- View Factor to Ground
  ,                                       !- Number of Vertices
  11.6729512977653, 5.83647564888264, 2.4384, !- X,Y,Z Vertex 1 {m}
  11.6729512977653, 5.83647564888264, 0,  !- X,Y,Z Vertex 2 {m}
  0, 5.83647564888264, 0,                 !- X,Y,Z Vertex 3 {m}
  0, 5.83647564888264, 2.4384;            !- X,Y,Z Vertex 4 {m}

OS:Surface,
  {9475921c-6ad8-4105-b960-d1fc374d7f0a}, !- Handle
  Surface 10,                             !- Name
  Wall,                                   !- Surface Type
  ,                                       !- Construction Name
  {6e0eabb9-7d4a-4304-aa31-c413b998641e}, !- Space Name
  Outdoors,                               !- Outside Boundary Condition
  ,                                       !- Outside Boundary Condition Object
  SunExposed,                             !- Sun Exposure
  WindExposed,                            !- Wind Exposure
  ,                                       !- View Factor to Ground
  ,                                       !- Number of Vertices
  11.6729512977653, 3.048, 2.4384,        !- X,Y,Z Vertex 1 {m}