!- NOTE: Auto-generated from /test/osw_files/SFD_2000sqft_2story_FB_GRG_UA_3Beds_2Baths_Denver_WHTankless_SHW.osw

OS:Version,
  {40fd6b8f-7b66-4e73-958e-a08c48db62b5}, !- Handle
  2.6.1;                                  !- Version Identifier

OS:Building,
  {78e5d3c0-b553-4c81-ba4b-9cbc223bd0df}, !- Handle
  Building 1,                             !- Name
  ,                                       !- Building Sector Type
  0,                                      !- North Axis {deg}
  ,                                       !- Nominal Floor to Floor Height {m}
  ,                                       !- Space Type Name
  ,                                       !- Default Construction Set Name
  ,                                       !- Default Schedule Set Name
  3,                                      !- Standards Number of Stories
  2,                                      !- Standards Number of Above Ground Stories
  singlefamilydetached,                   !- Standards Building Type
  1;                                      !- Standards Number of Living Units

OS:Facility,
  {71aba426-dfd0-4dbb-841b-76e59188885f}; !- Handle

OS:Site,
  {762871c4-4c73-4670-88d4-a4191c960275}, !- Handle
  Denver Intl Ap_CO_USA,                  !- Name
  39.83,                                  !- Latitude {deg}
  -104.65,                                !- Longitude {deg}
  -7,                                     !- Time Zone {hr}
  1650,                                   !- Elevation {m}
  ;                                       !- Terrain

OS:SimulationControl,
  {e517d244-aabb-4904-8e33-dcddf4ceafc1}, !- Handle
  ,                                       !- Do Zone Sizing Calculation
  ,                                       !- Do System Sizing Calculation
  ,                                       !- Do Plant Sizing Calculation
  No;                                     !- Run Simulation for Sizing Periods

OS:Sizing:Parameters,
  {ea0529fa-b18e-4cd7-903d-5b536027a241}, !- Handle
  1.25,                                   !- Heating Sizing Factor
  1.15;                                   !- Cooling Sizing Factor

OS:Timestep,
  {270c964a-9522-4fed-9248-7e4cf3201802}, !- Handle
  6;                                      !- Number of Timesteps per Hour

OS:ShadowCalculation,
  {776a3d03-4c27-48e3-bc7e-6aa49a79a5c0}, !- Handle
  20,                                     !- Calculation Frequency
  200;                                    !- Maximum Figures in Shadow Overlap Calculations

OS:HeatBalanceAlgorithm,
  {f8f54a95-54b2-4d04-8234-7d245e87aa8f}, !- Handle
  ConductionTransferFunction,             !- Algorithm
  200;                                    !- Surface Temperature Upper Limit {C}

OS:RunPeriod,
  {db8d08d6-c904-4d70-ad97-0e7996585858}, !- Handle
  Run Period 1,                           !- Name
  1,                                      !- Begin Month
  1,                                      !- Begin Day of Month
  12,                                     !- End Month
  31,                                     !- End Day of Month
  ,                                       !- Use Weather File Holidays and Special Days
  ,                                       !- Use Weather File Daylight Saving Period
  ,                                       !- Apply Weekend Holiday Rule
  ,                                       !- Use Weather File Rain Indicators
  ,                                       !- Use Weather File Snow Indicators
  ;                                       !- Number of Times Runperiod to be Repeated

OS:LifeCycleCost:Parameters,
  {7e7722dc-7262-42ba-ad99-f5904fb7714f}, !- Handle
  ,                                       !- Analysis Type
  ,                                       !- Discounting Convention
  ,                                       !- Inflation Approach
  ,                                       !- Real Discount Rate
  ,                                       !- Nominal Discount Rate
  ,                                       !- Inflation
  ,                                       !- Base Date Month
  ,                                       !- Base Date Year
  ,                                       !- Service Date Month
  ,                                       !- Service Date Year
  ;                                       !- Length of Study Period in Years

OS:ThermalZone,
  {4f75e633-b44b-42cb-ba72-67f114e84f34}, !- Handle
  living zone,                            !- Name
  ,                                       !- Multiplier
  ,                                       !- Ceiling Height {m}
  ,                                       !- Volume {m3}
  ,                                       !- Floor Area {m2}
  ,                                       !- Zone Inside Convection Algorithm
  ,                                       !- Zone Outside Convection Algorithm
  ,                                       !- Zone Conditioning Equipment List Name
  {f57dabd4-0e41-4e2f-8821-ff690fb36c58}, !- Zone Air Inlet Port List
  {efc02b05-1b98-4b35-a930-27587c5b6ec6}, !- Zone Air Exhaust Port List
  {bdb7b18d-b370-4294-b733-8675d34f379f}, !- Zone Air Node Name
  {d7af766b-ca98-482f-a5f8-b394b4d8fefb}, !- Zone Return Air Port List
  ,                                       !- Primary Daylighting Control Name
  ,                                       !- Fraction of Zone Controlled by Primary Daylighting Control
  ,                                       !- Secondary Daylighting Control Name
  ,                                       !- Fraction of Zone Controlled by Secondary Daylighting Control
  ,                                       !- Illuminance Map Name
  ,                                       !- Group Rendering Name
  ,                                       !- Thermostat Name
  No;                                     !- Use Ideal Air Loads

OS:Node,
  {d16cca63-bc04-448c-8ace-e9342c1e7597}, !- Handle
  Node 1,                                 !- Name
  {bdb7b18d-b370-4294-b733-8675d34f379f}, !- Inlet Port
  ;                                       !- Outlet Port

OS:Connection,
  {bdb7b18d-b370-4294-b733-8675d34f379f}, !- Handle
  {01f91e36-ff11-466c-9892-364a21d7d6d2}, !- Name
  {4f75e633-b44b-42cb-ba72-67f114e84f34}, !- Source Object
  11,                                     !- Outlet Port
  {d16cca63-bc04-448c-8ace-e9342c1e7597}, !- Target Object
  2;                                      !- Inlet Port

OS:PortList,
  {f57dabd4-0e41-4e2f-8821-ff690fb36c58}, !- Handle
  {26231878-bbc4-41cb-8e26-fcf6e27bc48a}, !- Name
  {4f75e633-b44b-42cb-ba72-67f114e84f34}; !- HVAC Component

OS:PortList,
  {efc02b05-1b98-4b35-a930-27587c5b6ec6}, !- Handle
  {eb11b19b-9efe-4caf-9869-9960af313f6d}, !- Name
  {4f75e633-b44b-42cb-ba72-67f114e84f34}; !- HVAC Component

OS:PortList,
  {d7af766b-ca98-482f-a5f8-b394b4d8fefb}, !- Handle
  {b14ef728-4965-4ddb-9269-f3a6edb4c64e}, !- Name
  {4f75e633-b44b-42cb-ba72-67f114e84f34}; !- HVAC Component

OS:Sizing:Zone,
  {e730ec69-0fd1-46c8-a5e5-339ac577b356}, !- Handle
  {4f75e633-b44b-42cb-ba72-67f114e84f34}, !- Zone or ZoneList Name
  SupplyAirTemperature,                   !- Zone Cooling Design Supply Air Temperature Input Method
  14,                                     !- Zone Cooling Design Supply Air Temperature {C}
  11.11,                                  !- Zone Cooling Design Supply Air Temperature Difference {deltaC}
  SupplyAirTemperature,                   !- Zone Heating Design Supply Air Temperature Input Method
  40,                                     !- Zone Heating Design Supply Air Temperature {C}
  11.11,                                  !- Zone Heating Design Supply Air Temperature Difference {deltaC}
  0.0085,                                 !- Zone Cooling Design Supply Air Humidity Ratio {kg-H2O/kg-air}
  0.008,                                  !- Zone Heating Design Supply Air Humidity Ratio {kg-H2O/kg-air}
  ,                                       !- Zone Heating Sizing Factor
  ,                                       !- Zone Cooling Sizing Factor
  DesignDay,                              !- Cooling Design Air Flow Method
  ,                                       !- Cooling Design Air Flow Rate {m3/s}
  ,                                       !- Cooling Minimum Air Flow per Zone Floor Area {m3/s-m2}
  ,                                       !- Cooling Minimum Air Flow {m3/s}
  ,                                       !- Cooling Minimum Air Flow Fraction
  DesignDay,                              !- Heating Design Air Flow Method
  ,                                       !- Heating Design Air Flow Rate {m3/s}
  ,                                       !- Heating Maximum Air Flow per Zone Floor Area {m3/s-m2}
  ,                                       !- Heating Maximum Air Flow {m3/s}
  ,                                       !- Heating Maximum Air Flow Fraction
  ,                                       !- Design Zone Air Distribution Effectiveness in Cooling Mode
  ,                                       !- Design Zone Air Distribution Effectiveness in Heating Mode
  No,                                     !- Account for Dedicated Outdoor Air System
  NeutralSupplyAir,                       !- Dedicated Outdoor Air System Control Strategy
  autosize,                               !- Dedicated Outdoor Air Low Setpoint Temperature for Design {C}
  autosize;                               !- Dedicated Outdoor Air High Setpoint Temperature for Design {C}

OS:ZoneHVAC:EquipmentList,
  {28201f81-cb7f-463a-a530-66a433131fbf}, !- Handle
  Zone HVAC Equipment List 1,             !- Name
  {4f75e633-b44b-42cb-ba72-67f114e84f34}; !- Thermal Zone

OS:ThermalZone,
  {346e7137-0bed-4f2c-820a-0c4003e1d0bd}, !- Handle
  garage zone,                            !- Name
  ,                                       !- Multiplier
  ,                                       !- Ceiling Height {m}
  ,                                       !- Volume {m3}
  ,                                       !- Floor Area {m2}
  ,                                       !- Zone Inside Convection Algorithm
  ,                                       !- Zone Outside Convection Algorithm
  ,                                       !- Zone Conditioning Equipment List Name
  {34f87151-e382-4958-93c5-f1234ddeaee0}, !- Zone Air Inlet Port List
  {5d98e1c5-4109-41c0-9dfe-b7085cd3d807}, !- Zone Air Exhaust Port List
  {7e0c980d-ee63-45cb-af9c-1a50c7dd4edd}, !- Zone Air Node Name
  {1a85e6e4-7db3-4b4e-b00c-d0683ef9752d}, !- Zone Return Air Port List
  ,                                       !- Primary Daylighting Control Name
  ,                                       !- Fraction of Zone Controlled by Primary Daylighting Control
  ,                                       !- Secondary Daylighting Control Name
  ,                                       !- Fraction of Zone Controlled by Secondary Daylighting Control
  ,                                       !- Illuminance Map Name
  ,                                       !- Group Rendering Name
  ,                                       !- Thermostat Name
  No;                                     !- Use Ideal Air Loads

OS:Node,
  {e93ab2a8-67ce-4ac4-8dac-da290ad5f904}, !- Handle
  Node 2,                                 !- Name
  {7e0c980d-ee63-45cb-af9c-1a50c7dd4edd}, !- Inlet Port
  ;                                       !- Outlet Port

OS:Connection,
  {7e0c980d-ee63-45cb-af9c-1a50c7dd4edd}, !- Handle
  {da5de09f-6586-4dad-b419-8bc0e5ca57b9}, !- Name
  {346e7137-0bed-4f2c-820a-0c4003e1d0bd}, !- Source Object
  11,                                     !- Outlet Port
  {e93ab2a8-67ce-4ac4-8dac-da290ad5f904}, !- Target Object
  2;                                      !- Inlet Port

OS:PortList,
  {34f87151-e382-4958-93c5-f1234ddeaee0}, !- Handle
  {4320ac92-937e-400f-ae9d-b127e041afaa}, !- Name
  {346e7137-0bed-4f2c-820a-0c4003e1d0bd}; !- HVAC Component

OS:PortList,
  {5d98e1c5-4109-41c0-9dfe-b7085cd3d807}, !- Handle
  {ed129eb7-e64d-4b63-9fc6-72857cd52134}, !- Name
  {346e7137-0bed-4f2c-820a-0c4003e1d0bd}; !- HVAC Component

OS:PortList,
  {1a85e6e4-7db3-4b4e-b00c-d0683ef9752d}, !- Handle
  {317a59b9-b3b4-440d-8644-e400acbe1fa8}, !- Name
  {346e7137-0bed-4f2c-820a-0c4003e1d0bd}; !- HVAC Component

OS:Sizing:Zone,
  {8d4b74ca-98a3-495f-919e-9b28036d4f3b}, !- Handle
  {346e7137-0bed-4f2c-820a-0c4003e1d0bd}, !- Zone or ZoneList Name
  SupplyAirTemperature,                   !- Zone Cooling Design Supply Air Temperature Input Method
  14,                                     !- Zone Cooling Design Supply Air Temperature {C}
  11.11,                                  !- Zone Cooling Design Supply Air Temperature Difference {deltaC}
  SupplyAirTemperature,                   !- Zone Heating Design Supply Air Temperature Input Method
  40,                                     !- Zone Heating Design Supply Air Temperature {C}
  11.11,                                  !- Zone Heating Design Supply Air Temperature Difference {deltaC}
  0.0085,                                 !- Zone Cooling Design Supply Air Humidity Ratio {kg-H2O/kg-air}
  0.008,                                  !- Zone Heating Design Supply Air Humidity Ratio {kg-H2O/kg-air}
  ,                                       !- Zone Heating Sizing Factor
  ,                                       !- Zone Cooling Sizing Factor
  DesignDay,                              !- Cooling Design Air Flow Method
  ,                                       !- Cooling Design Air Flow Rate {m3/s}
  ,                                       !- Cooling Minimum Air Flow per Zone Floor Area {m3/s-m2}
  ,                                       !- Cooling Minimum Air Flow {m3/s}
  ,                                       !- Cooling Minimum Air Flow Fraction
  DesignDay,                              !- Heating Design Air Flow Method
  ,                                       !- Heating Design Air Flow Rate {m3/s}
  ,                                       !- Heating Maximum Air Flow per Zone Floor Area {m3/s-m2}
  ,                                       !- Heating Maximum Air Flow {m3/s}
  ,                                       !- Heating Maximum Air Flow Fraction
  ,                                       !- Design Zone Air Distribution Effectiveness in Cooling Mode
  ,                                       !- Design Zone Air Distribution Effectiveness in Heating Mode
  No,                                     !- Account for Dedicated Outdoor Air System
  NeutralSupplyAir,                       !- Dedicated Outdoor Air System Control Strategy
  autosize,                               !- Dedicated Outdoor Air Low Setpoint Temperature for Design {C}
  autosize;                               !- Dedicated Outdoor Air High Setpoint Temperature for Design {C}

OS:ZoneHVAC:EquipmentList,
  {62bc1f1f-eb1f-4b91-b4d7-9382bdd7a0bf}, !- Handle
  Zone HVAC Equipment List 2,             !- Name
  {346e7137-0bed-4f2c-820a-0c4003e1d0bd}; !- Thermal Zone

OS:Space,
  {9e776147-c788-4fc5-92b8-a14f616b4a3d}, !- Handle
  garage space,                           !- Name
  {e86aa851-2212-4e63-91b7-5f84ec442c44}, !- Space Type Name
  ,                                       !- Default Construction Set Name
  ,                                       !- Default Schedule Set Name
  -0,                                     !- Direction of Relative North {deg}
  0,                                      !- X Origin {m}
  0,                                      !- Y Origin {m}
  0,                                      !- Z Origin {m}
  ,                                       !- Building Story Name
  {346e7137-0bed-4f2c-820a-0c4003e1d0bd}; !- Thermal Zone Name

OS:Surface,
  {c0da7b62-8246-4257-9382-c9d7e5046ddf}, !- Handle
  Surface 1,                              !- Name
  Floor,                                  !- Surface Type
  ,                                       !- Construction Name
  {9e776147-c788-4fc5-92b8-a14f616b4a3d}, !- Space Name
  Foundation,                             !- Outside Boundary Condition
  ,                                       !- Outside Boundary Condition Object
  NoSun,                                  !- Sun Exposure
  NoWind,                                 !- Wind Exposure
  ,                                       !- View Factor to Ground
  ,                                       !- Number of Vertices
  5.57695129776527, -3.048, 0,            !- X,Y,Z Vertex 1 {m}
  5.57695129776527, 3.048, 0,             !- X,Y,Z Vertex 2 {m}
  11.6729512977653, 3.048, 0,             !- X,Y,Z Vertex 3 {m}
  11.6729512977653, -3.048, 0;            !- X,Y,Z Vertex 4 {m}

OS:Surface,
  {dfc6be79-4ca1-4b3d-88f1-85cb516f6193}, !- Handle
  Surface 2,                              !- Name
  Wall,                                   !- Surface Type
  ,                                       !- Construction Name
  {9e776147-c788-4fc5-92b8-a14f616b4a3d}, !- Space Name
  Surface,                                !- Outside Boundary Condition
  {d67e1bab-e82e-4b0e-a5b7-50ccb8c3373a}, !- Outside Boundary Condition Object
  NoSun,                                  !- Sun Exposure
  NoWind,                                 !- Wind Exposure
  ,                                       !- View Factor to Ground
  ,                                       !- Number of Vertices
  5.57695129776527, 3.048, 2.4384,        !- X,Y,Z Vertex 1 {m}
  5.57695129776527, 3.048, 0,             !- X,Y,Z Vertex 2 {m}
  5.57695129776527, 0, 0,                 !- X,Y,Z Vertex 3 {m}
  5.57695129776527, 0, 2.4384;            !- X,Y,Z Vertex 4 {m}

OS:Surface,
  {97811c12-6607-45a5-a942-7f59a41fab12}, !- Handle
  Surface 3,                              !- Name
  Wall,                                   !- Surface Type
  ,                                       !- Construction Name
  {9e776147-c788-4fc5-92b8-a14f616b4a3d}, !- Space Name
  Surface,                                !- Outside Boundary Condition
  {a9ed26b1-bc60-4346-9bc2-6eae6df8d2c0}, !- Outside Boundary Condition Object
  NoSun,                                  !- Sun Exposure
  NoWind,                                 !- Wind Exposure
  ,                                       !- View Factor to Ground
  ,                                       !- Number of Vertices
  11.6729512977653, 3.048, 2.4384,        !- X,Y,Z Vertex 1 {m}
  11.6729512977653, 3.048, 0,             !- X,Y,Z Vertex 2 {m}
  5.57695129776527, 3.048, 0,             !- X,Y,Z Vertex 3 {m}
  5.57695129776527, 3.048, 2.4384;        !- X,Y,Z Vertex 4 {m}

OS:Surface,
  {a5c1d96c-f07c-4ae5-ad2f-fe83825c4795}, !- Handle
  Surface 4,                              !- Name
  Wall,                                   !- Surface Type
  ,                                       !- Construction Name
  {9e776147-c788-4fc5-92b8-a14f616b4a3d}, !- Space Name
  Outdoors,                               !- Outside Boundary Condition
  ,                                       !- Outside Boundary Condition Object
  SunExposed,                             !- Sun Exposure
  WindExposed,                            !- Wind Exposure
  ,                                       !- View Factor to Ground
  ,                                       !- Number of Vertices
  11.6729512977653, -3.048, 2.4384,       !- X,Y,Z Vertex 1 {m}
  11.6729512977653, -3.048, 0,            !- X,Y,Z Vertex 2 {m}
  11.6729512977653, 3.048, 0,             !- X,Y,Z Vertex 3 {m}
  11.6729512977653, 3.048, 2.4384;        !- X,Y,Z Vertex 4 {m}

OS:Surface,
  {93f0ec34-42a5-46e1-ba1d-efb3d9ed120d}, !- Handle
  Surface 5,                              !- Name
  Wall,                                   !- Surface Type
  ,                                       !- Construction Name
  {9e776147-c788-4fc5-92b8-a14f616b4a3d}, !- Space Name
  Outdoors,                               !- Outside Boundary Condition
  ,                                       !- Outside Boundary Condition Object
  SunExposed,                             !- Sun Exposure
  WindExposed,                            !- Wind Exposure
  ,                                       !- View Factor to Ground
  ,                                       !- Number of Vertices
  5.57695129776527, -3.048, 2.4384,       !- X,Y,Z Vertex 1 {m}
  5.57695129776527, -3.048, 0,            !- X,Y,Z Vertex 2 {m}
  11.6729512977653, -3.048, 0,            !- X,Y,Z Vertex 3 {m}
  11.6729512977653, -3.048, 2.4384;       !- X,Y,Z Vertex 4 {m}

OS:Surface,
  {2c73945f-7ff1-4bc8-a988-862791bfa070}, !- Handle
  Surface 6,                              !- Name
  RoofCeiling,                            !- Surface Type
  ,                                       !- Construction Name
  {9e776147-c788-4fc5-92b8-a14f616b4a3d}, !- Space Name
  Surface,                                !- Outside Boundary Condition
  {d0016c71-a5f8-4a3f-afc2-cacfa60853c1}, !- Outside Boundary Condition Object
  NoSun,                                  !- Sun Exposure
  NoWind,                                 !- Wind Exposure
  ,                                       !- View Factor to Ground
  ,                                       !- Number of Vertices
  11.6729512977653, -3.048, 2.4384,       !- X,Y,Z Vertex 1 {m}
  11.6729512977653, 3.048, 2.4384,        !- X,Y,Z Vertex 2 {m}
  5.57695129776527, 3.048, 2.4384,        !- X,Y,Z Vertex 3 {m}
  5.57695129776527, -3.048, 2.4384;       !- X,Y,Z Vertex 4 {m}

OS:SpaceType,
  {e86aa851-2212-4e63-91b7-5f84ec442c44}, !- Handle
  Space Type 1,                           !- Name
  ,                                       !- Default Construction Set Name
  ,                                       !- Default Schedule Set Name
  ,                                       !- Group Rendering Name
  ,                                       !- Design Specification Outdoor Air Object Name
  ,                                       !- Standards Building Type
  garage;                                 !- Standards Space Type

OS:Space,
  {b953cf91-c3e2-4492-b9b5-c2d09a157f4f}, !- Handle
  living space,                           !- Name
  {4ce7231f-8158-4d80-8e0d-7b878d52d646}, !- Space Type Name
  ,                                       !- Default Construction Set Name
  ,                                       !- Default Schedule Set Name
  -0,                                     !- Direction of Relative North {deg}
  0,                                      !- X Origin {m}
  0,                                      !- Y Origin {m}
  0,                                      !- Z Origin {m}
  ,                                       !- Building Story Name
  {4f75e633-b44b-42cb-ba72-67f114e84f34}, !- Thermal Zone Name
  ,                                       !- Part of Total Floor Area
  ,                                       !- Design Specification Outdoor Air Object Name
  {165395f7-dd19-47dd-9a9c-4485a3fbb6ed}; !- Building Unit Name

OS:Surface,
  {ce41fc1f-7499-4489-b42c-767dd1560c9f}, !- Handle
  Surface 7,                              !- Name
  Floor,                                  !- Surface Type
  ,                                       !- Construction Name
  {b953cf91-c3e2-4492-b9b5-c2d09a157f4f}, !- Space Name
  Surface,                                !- Outside Boundary Condition
  {0b1cbb65-56fb-458f-8da1-b5fa5c96e83c}, !- Outside Boundary Condition Object
  NoSun,                                  !- Sun Exposure
  NoWind,                                 !- Wind Exposure
  ,                                       !- View Factor to Ground
  ,                                       !- Number of Vertices
  0, 0, 0,                                !- X,Y,Z Vertex 1 {m}
  0, 5.83647564888264, 0,                 !- X,Y,Z Vertex 2 {m}
  11.6729512977653, 5.83647564888264, 0,  !- X,Y,Z Vertex 3 {m}
  11.6729512977653, 3.048, 0,             !- X,Y,Z Vertex 4 {m}
  5.57695129776527, 3.048, 0,             !- X,Y,Z Vertex 5 {m}
  5.57695129776527, 0, 0;                 !- X,Y,Z Vertex 6 {m}

OS:Surface,
  {3d4ce0c1-3856-4105-90e0-b917a8f24c4d}, !- Handle
  Surface 8,                              !- Name
  Wall,                                   !- Surface Type
  ,                                       !- Construction Name
  {b953cf91-c3e2-4492-b9b5-c2d09a157f4f}, !- Space Name
  Outdoors,                               !- Outside Boundary Condition
  ,                                       !- Outside Boundary Condition Object
  SunExposed,                             !- Sun Exposure
  WindExposed,                            !- Wind Exposure
  ,                                       !- View Factor to Ground
  ,                                       !- Number of Vertices
  0, 5.83647564888264, 2.4384,            !- X,Y,Z Vertex 1 {m}
  0, 5.83647564888264, 0,                 !- X,Y,Z Vertex 2 {m}
  0, 0, 0,                                !- X,Y,Z Vertex 3 {m}
  0, 0, 2.4384;                           !- X,Y,Z Vertex 4 {m}

OS:Surface,
  {27b8aedd-337b-4a8c-b84e-fa99c2213d1d}, !- Handle
  Surface 9,                              !- Name
  Wall,                                   !- Surface Type
  ,                                       !- Construction Name
  {b953cf91-c3e2-4492-b9b5-c2d09a157f4f}, !- Space Name
  Outdoors,                               !- Outside Boundary Condition
  ,                                       !- Outside Boundary Condition Object
  SunExposed,                             !- Sun Exposure
  WindExposed,                            !- Wind Exposure
  ,                                       !- View Factor to Ground
  ,                                       !- Number of Vertices
  11.6729512977653, 5.83647564888264, 2.4384, !- X,Y,Z Vertex 1 {m}
  11.6729512977653, 5.83647564888264, 0,  !- X,Y,Z Vertex 2 {m}
  0, 5.83647564888264, 0,                 !- X,Y,Z Vertex 3 {m}
  0, 5.83647564888264, 2.4384;            !- X,Y,Z Vertex 4 {m}

OS:Surface,
  {7917d3c4-717b-4ab4-8a2b-f08487c00f6a}, !- Handle
  Surface 10,                             !- Name
  Wall,                                   !- Surface Type
  ,                                       !- Construction Name
  {b953cf91-c3e2-4492-b9b5-c2d09a157f4f}, !- Space Name
  Outdoors,                               !- Outside Boundary Condition
  ,                                       !- Outside Boundary Condition Object
  SunExposed,                             !- Sun Exposure
  WindExposed,                            !- Wind Exposure
  ,                                       !- View Factor to Ground
  ,                                       !- Number of Vertices
  11.6729512977653, 3.048, 2.4384,        !- X,Y,Z Vertex 1 {m}
  11.6729512977653, 3.048, 0,             !- X,Y,Z Vertex 2 {m}
  11.6729512977653, 5.83647564888264, 0,  !- X,Y,Z Vertex 3 {m}
  11.6729512977653, 5.83647564888264, 2.4384; !- X,Y,Z Vertex 4 {m}

OS:Surface,
  {a9ed26b1-bc60-4346-9bc2-6eae6df8d2c0}, !- Handle
  Surface 11,                             !- Name
  Wall,                                   !- Surface Type
  ,                                       !- Construction Name
  {b953cf91-c3e2-4492-b9b5-c2d09a157f4f}, !- Space Name
  Surface,                                !- Outside Boundary Condition
  {97811c12-6607-45a5-a942-7f59a41fab12}, !- Outside Boundary Condition Object
  NoSun,                                  !- Sun Exposure
  NoWind,                                 !- Wind Exposure
  ,                                       !- View Factor to Ground
  ,                                       !- Number of Vertices
  5.57695129776527, 3.048, 2.4384,        !- X,Y,Z Vertex 1 {m}
  5.57695129776527, 3.048, 0,             !- X,Y,Z Vertex 2 {m}
  11.6729512977653, 3.048, 0,             !- X,Y,Z Vertex 3 {m}
  11.6729512977653, 3.048, 2.4384;        !- X,Y,Z Vertex 4 {m}

OS:Surface,
  {d67e1bab-e82e-4b0e-a5b7-50ccb8c3373a}, !- Handle
  Surface 12,                             !- Name
  Wall,                                   !- Surface Type
  ,                                       !- Construction Name
  {b953cf91-c3e2-4492-b9b5-c2d09a157f4f}, !- Space Name
  Surface,                                !- Outside Boundary Condition
  {dfc6be79-4ca1-4b3d-88f1-85cb516f6193}, !- Outside Boundary Condition Object
  NoSun,                                  !- Sun Exposure
  NoWind,                                 !- Wind Exposure
  ,                                       !- View Factor to Ground
  ,                                       !- Number of Vertices
  5.57695129776527, 0, 2.4384,            !- X,Y,Z Vertex 1 {m}
  5.57695129776527, 0, 0,                 !- X,Y,Z Vertex 2 {m}
  5.57695129776527, 3.048, 0,             !- X,Y,Z Vertex 3 {m}
  5.57695129776527, 3.048, 2.4384;        !- X,Y,Z Vertex 4 {m}

OS:Surface,
  {f36fe6e8-0ffc-4297-b418-57cc6345e291}, !- Handle
  Surface 13,                             !- Name
  Wall,                                   !- Surface Type
  ,                                       !- Construction Name
  {b953cf91-c3e2-4492-b9b5-c2d09a157f4f}, !- Space Name
  Outdoors,                               !- Outside Boundary Condition
  ,                                       !- Outside Boundary Condition Object
  SunExposed,                             !- Sun Exposure
  WindExposed,                            !- Wind Exposure
  ,                                       !- View Factor to Ground
  ,                                       !- Number of Vertices
  0, 0, 2.4384,                           !- X,Y,Z Vertex 1 {m}
  0, 0, 0,                                !- X,Y,Z Vertex 2 {m}
  5.57695129776527, 0, 0,                 !- X,Y,Z Vertex 3 {m}
  5.57695129776527, 0, 2.4384;            !- X,Y,Z Vertex 4 {m}

OS:Surface,
  {c0d815ac-e30a-4c26-a066-b7974aea3f51}, !- Handle
  Surface 14,                             !- Name
  RoofCeiling,                            !- Surface Type
  ,                                       !- Construction Name
  {b953cf91-c3e2-4492-b9b5-c2d09a157f4f}, !- Space Name
  Surface,                                !- Outside Boundary Condition