!- NOTE: Auto-generated from /test/osw_files/SFD_2000sqft_2story_FB_GRG_UA_3Beds_2Baths_Denver_WHTankless_SHW.osw

OS:Version,
  {a090cda8-d84e-4116-8b7c-717c128875f8}, !- Handle
  2.7.0;                                  !- Version Identifier

OS:Building,
  {c65cd8ed-5f20-48fc-8050-ef345f3711f9}, !- Handle
  Building 1,                             !- Name
  ,                                       !- Building Sector Type
  0,                                      !- North Axis {deg}
  ,                                       !- Nominal Floor to Floor Height {m}
  ,                                       !- Space Type Name
  ,                                       !- Default Construction Set Name
  ,                                       !- Default Schedule Set Name
  3,                                      !- Standards Number of Stories
  2,                                      !- Standards Number of Above Ground Stories
  ,                                       !- Standards Template
  singlefamilydetached,                   !- Standards Building Type
  1;                                      !- Standards Number of Living Units

OS:Facility,
  {b4badc6f-72e2-4d94-b3bf-2685c6c5d1e5}; !- Handle

OS:Site,
  {c58bad8b-13b8-4e93-8510-432ba3ec78ab}, !- Handle
  Denver Intl Ap_CO_USA,                  !- Name
  39.83,                                  !- Latitude {deg}
  -104.65,                                !- Longitude {deg}
  -7,                                     !- Time Zone {hr}
  1650,                                   !- Elevation {m}
  ;                                       !- Terrain

OS:SimulationControl,
  {6b207825-9e79-426a-b8f1-853061182682}, !- Handle
  ,                                       !- Do Zone Sizing Calculation
  ,                                       !- Do System Sizing Calculation
  ,                                       !- Do Plant Sizing Calculation
  No;                                     !- Run Simulation for Sizing Periods

OS:Sizing:Parameters,
  {8fe6bb24-d045-451d-8756-e59a8058d052}, !- Handle
  1.25,                                   !- Heating Sizing Factor
  1.15;                                   !- Cooling Sizing Factor

OS:Timestep,
  {d0280061-949e-435c-b90d-06f9d3c53e39}, !- Handle
  6;                                      !- Number of Timesteps per Hour

OS:ShadowCalculation,
  {3ceb73f6-146e-497f-84e7-78be104d0426}, !- Handle
  20,                                     !- Calculation Frequency
  200;                                    !- Maximum Figures in Shadow Overlap Calculations

OS:HeatBalanceAlgorithm,
  {9167dfec-352c-44e1-9774-bb844b82120a}, !- Handle
  ConductionTransferFunction,             !- Algorithm
  200;                                    !- Surface Temperature Upper Limit {C}

OS:RunPeriod,
  {80ae2060-a8cc-49d8-9cc6-4a8e79e192a2}, !- Handle
  Run Period 1,                           !- Name
  1,                                      !- Begin Month
  1,                                      !- Begin Day of Month
  12,                                     !- End Month
  31,                                     !- End Day of Month
  ,                                       !- Use Weather File Holidays and Special Days
  ,                                       !- Use Weather File Daylight Saving Period
  ,                                       !- Apply Weekend Holiday Rule
  ,                                       !- Use Weather File Rain Indicators
  ,                                       !- Use Weather File Snow Indicators
  ;                                       !- Number of Times Runperiod to be Repeated

OS:LifeCycleCost:Parameters,
  {2902c492-4b22-477b-bc39-d5dad9b7e314}, !- Handle
  ,                                       !- Analysis Type
  ,                                       !- Discounting Convention
  ,                                       !- Inflation Approach
  ,                                       !- Real Discount Rate
  ,                                       !- Nominal Discount Rate
  ,                                       !- Inflation
  ,                                       !- Base Date Month
  ,                                       !- Base Date Year
  ,                                       !- Service Date Month
  ,                                       !- Service Date Year
  ;                                       !- Length of Study Period in Years

OS:SurfaceConvectionAlgorithm:Outside,
  {c2c650ae-e281-4915-9cbc-ca7e0e2de045}, !- Handle
  DOE-2;                                  !- Algorithm

OS:SurfaceConvectionAlgorithm:Inside,
  {60a11f9f-65d2-417f-8f86-b6f5e06d69cf}, !- Handle
  TARP;                                   !- Algorithm

OS:ZoneCapacitanceMultiplier:ResearchSpecial,
  {36e61e97-2a89-4de3-9219-c2951c9abe34}, !- Handle
  ,                                       !- Temperature Capacity Multiplier
  15,                                     !- Humidity Capacity Multiplier
  ;                                       !- Carbon Dioxide Capacity Multiplier

OS:ThermalZone,
  {91b5493f-5bd3-4be7-a730-ca985dadf9a9}, !- Handle
  living zone,                            !- Name
  ,                                       !- Multiplier
  ,                                       !- Ceiling Height {m}
  ,                                       !- Volume {m3}
  ,                                       !- Floor Area {m2}
  ,                                       !- Zone Inside Convection Algorithm
  ,                                       !- Zone Outside Convection Algorithm
  ,                                       !- Zone Conditioning Equipment List Name
  {e3909000-4946-41fe-817b-49617bf282e6}, !- Zone Air Inlet Port List
  {dc1e1aff-a528-41dc-b4cd-89e4f196ee3a}, !- Zone Air Exhaust Port List
  {b043836f-54b8-4a7b-b909-17012e9320d2}, !- Zone Air Node Name
  {d14d017f-682a-498a-a725-75d128a5ca16}, !- Zone Return Air Port List
  ,                                       !- Primary Daylighting Control Name
  ,                                       !- Fraction of Zone Controlled by Primary Daylighting Control
  ,                                       !- Secondary Daylighting Control Name
  ,                                       !- Fraction of Zone Controlled by Secondary Daylighting Control
  ,                                       !- Illuminance Map Name
  ,                                       !- Group Rendering Name
  ,                                       !- Thermostat Name
  No;                                     !- Use Ideal Air Loads

OS:Node,
  {28451fca-4b7b-4231-a2b0-04f9ad1ecdfc}, !- Handle
  Node 1,                                 !- Name
  {b043836f-54b8-4a7b-b909-17012e9320d2}, !- Inlet Port
  ;                                       !- Outlet Port

OS:Connection,
  {b043836f-54b8-4a7b-b909-17012e9320d2}, !- Handle
  {83d9072a-499a-4e21-a7ec-dcd350a3e7f4}, !- Name
  {91b5493f-5bd3-4be7-a730-ca985dadf9a9}, !- Source Object
  11,                                     !- Outlet Port
  {28451fca-4b7b-4231-a2b0-04f9ad1ecdfc}, !- Target Object
  2;                                      !- Inlet Port

OS:PortList,
  {e3909000-4946-41fe-817b-49617bf282e6}, !- Handle
  {59b06916-8215-4664-88bd-f2837e5e11da}, !- Name
  {91b5493f-5bd3-4be7-a730-ca985dadf9a9}; !- HVAC Component

OS:PortList,
  {dc1e1aff-a528-41dc-b4cd-89e4f196ee3a}, !- Handle
  {00487744-196f-4f87-9c89-1cfb67a7cb87}, !- Name
  {91b5493f-5bd3-4be7-a730-ca985dadf9a9}; !- HVAC Component

OS:PortList,
  {d14d017f-682a-498a-a725-75d128a5ca16}, !- Handle
  {7f490837-634f-4d41-a611-ba1a9f83c46b}, !- Name
  {91b5493f-5bd3-4be7-a730-ca985dadf9a9}; !- HVAC Component

OS:Sizing:Zone,
  {94f2a794-2124-4b93-bd5d-cda054ef1124}, !- Handle
  {91b5493f-5bd3-4be7-a730-ca985dadf9a9}, !- Zone or ZoneList Name
  SupplyAirTemperature,                   !- Zone Cooling Design Supply Air Temperature Input Method
  14,                                     !- Zone Cooling Design Supply Air Temperature {C}
  11.11,                                  !- Zone Cooling Design Supply Air Temperature Difference {deltaC}
  SupplyAirTemperature,                   !- Zone Heating Design Supply Air Temperature Input Method
  40,                                     !- Zone Heating Design Supply Air Temperature {C}
  11.11,                                  !- Zone Heating Design Supply Air Temperature Difference {deltaC}
  0.0085,                                 !- Zone Cooling Design Supply Air Humidity Ratio {kg-H2O/kg-air}
  0.008,                                  !- Zone Heating Design Supply Air Humidity Ratio {kg-H2O/kg-air}
  ,                                       !- Zone Heating Sizing Factor
  ,                                       !- Zone Cooling Sizing Factor
  DesignDay,                              !- Cooling Design Air Flow Method
  ,                                       !- Cooling Design Air Flow Rate {m3/s}
  ,                                       !- Cooling Minimum Air Flow per Zone Floor Area {m3/s-m2}
  ,                                       !- Cooling Minimum Air Flow {m3/s}
  ,                                       !- Cooling Minimum Air Flow Fraction
  DesignDay,                              !- Heating Design Air Flow Method
  ,                                       !- Heating Design Air Flow Rate {m3/s}
  ,                                       !- Heating Maximum Air Flow per Zone Floor Area {m3/s-m2}
  ,                                       !- Heating Maximum Air Flow {m3/s}
  ,                                       !- Heating Maximum Air Flow Fraction
  ,                                       !- Design Zone Air Distribution Effectiveness in Cooling Mode
  ,                                       !- Design Zone Air Distribution Effectiveness in Heating Mode
  No,                                     !- Account for Dedicated Outdoor Air System
  NeutralSupplyAir,                       !- Dedicated Outdoor Air System Control Strategy
  autosize,                               !- Dedicated Outdoor Air Low Setpoint Temperature for Design {C}
  autosize;                               !- Dedicated Outdoor Air High Setpoint Temperature for Design {C}

OS:ZoneHVAC:EquipmentList,
  {e673df66-1880-4801-b946-ab42f9bb25e4}, !- Handle
  Zone HVAC Equipment List 1,             !- Name
  {91b5493f-5bd3-4be7-a730-ca985dadf9a9}; !- Thermal Zone

OS:ThermalZone,
  {f6e7dfde-8d4f-4e9f-b648-1d43c531bc7b}, !- Handle
  garage zone,                            !- Name
  ,                                       !- Multiplier
  ,                                       !- Ceiling Height {m}
  ,                                       !- Volume {m3}
  ,                                       !- Floor Area {m2}
  ,                                       !- Zone Inside Convection Algorithm
  ,                                       !- Zone Outside Convection Algorithm
  ,                                       !- Zone Conditioning Equipment List Name
  {36bf80a5-f5c3-41be-874f-1102923c1c27}, !- Zone Air Inlet Port List
  {5128f09d-211f-44da-a45f-f2f4ce0aa614}, !- Zone Air Exhaust Port List
  {f019be2d-27ab-44ef-93be-e3d70093f022}, !- Zone Air Node Name
  {91f31f8f-c7fa-409d-9b43-138421ffdf28}, !- Zone Return Air Port List
  ,                                       !- Primary Daylighting Control Name
  ,                                       !- Fraction of Zone Controlled by Primary Daylighting Control
  ,                                       !- Secondary Daylighting Control Name
  ,                                       !- Fraction of Zone Controlled by Secondary Daylighting Control
  ,                                       !- Illuminance Map Name
  ,                                       !- Group Rendering Name
  ,                                       !- Thermostat Name
  No;                                     !- Use Ideal Air Loads

OS:Node,
  {1c6ad697-c637-45bb-a43c-484bd03c2343}, !- Handle
  Node 2,                                 !- Name
  {f019be2d-27ab-44ef-93be-e3d70093f022}, !- Inlet Port
  ;                                       !- Outlet Port

OS:Connection,
  {f019be2d-27ab-44ef-93be-e3d70093f022}, !- Handle
  {13f5b926-63aa-4442-8d2f-f03de7c7e558}, !- Name
  {f6e7dfde-8d4f-4e9f-b648-1d43c531bc7b}, !- Source Object
  11,                                     !- Outlet Port
  {1c6ad697-c637-45bb-a43c-484bd03c2343}, !- Target Object
  2;                                      !- Inlet Port

OS:PortList,
  {36bf80a5-f5c3-41be-874f-1102923c1c27}, !- Handle
  {ed7fb48d-367f-42db-a255-5fa4102b61e3}, !- Name
  {f6e7dfde-8d4f-4e9f-b648-1d43c531bc7b}; !- HVAC Component

OS:PortList,
  {5128f09d-211f-44da-a45f-f2f4ce0aa614}, !- Handle
  {0fe8f784-aa83-4538-a022-d538a4011376}, !- Name
  {f6e7dfde-8d4f-4e9f-b648-1d43c531bc7b}; !- HVAC Component

OS:PortList,
  {91f31f8f-c7fa-409d-9b43-138421ffdf28}, !- Handle
  {29505ea6-b58e-48e3-bbdc-e84294cf051e}, !- Name
  {f6e7dfde-8d4f-4e9f-b648-1d43c531bc7b}; !- HVAC Component

OS:Sizing:Zone,
  {48292408-7e29-4770-adaf-83d7033502df}, !- Handle
  {f6e7dfde-8d4f-4e9f-b648-1d43c531bc7b}, !- Zone or ZoneList Name
  SupplyAirTemperature,                   !- Zone Cooling Design Supply Air Temperature Input Method
  14,                                     !- Zone Cooling Design Supply Air Temperature {C}
  11.11,                                  !- Zone Cooling Design Supply Air Temperature Difference {deltaC}
  SupplyAirTemperature,                   !- Zone Heating Design Supply Air Temperature Input Method
  40,                                     !- Zone Heating Design Supply Air Temperature {C}
  11.11,                                  !- Zone Heating Design Supply Air Temperature Difference {deltaC}
  0.0085,                                 !- Zone Cooling Design Supply Air Humidity Ratio {kg-H2O/kg-air}
  0.008,                                  !- Zone Heating Design Supply Air Humidity Ratio {kg-H2O/kg-air}
  ,                                       !- Zone Heating Sizing Factor
  ,                                       !- Zone Cooling Sizing Factor
  DesignDay,                              !- Cooling Design Air Flow Method
  ,                                       !- Cooling Design Air Flow Rate {m3/s}
  ,                                       !- Cooling Minimum Air Flow per Zone Floor Area {m3/s-m2}
  ,                                       !- Cooling Minimum Air Flow {m3/s}
  ,                                       !- Cooling Minimum Air Flow Fraction
  DesignDay,                              !- Heating Design Air Flow Method
  ,                                       !- Heating Design Air Flow Rate {m3/s}
  ,                                       !- Heating Maximum Air Flow per Zone Floor Area {m3/s-m2}
  ,                                       !- Heating Maximum Air Flow {m3/s}
  ,                                       !- Heating Maximum Air Flow Fraction
  ,                                       !- Design Zone Air Distribution Effectiveness in Cooling Mode
  ,                                       !- Design Zone Air Distribution Effectiveness in Heating Mode
  No,                                     !- Account for Dedicated Outdoor Air System
  NeutralSupplyAir,                       !- Dedicated Outdoor Air System Control Strategy
  autosize,                               !- Dedicated Outdoor Air Low Setpoint Temperature for Design {C}
  autosize;                               !- Dedicated Outdoor Air High Setpoint Temperature for Design {C}

OS:ZoneHVAC:EquipmentList,
  {4c9d861a-102b-49f1-a283-e4e7c746b416}, !- Handle
  Zone HVAC Equipment List 2,             !- Name
  {f6e7dfde-8d4f-4e9f-b648-1d43c531bc7b}; !- Thermal Zone

OS:Space,
  {be723ba3-b946-4130-97e4-b5c08393f14f}, !- Handle
  garage space,                           !- Name
  {8e9d6d51-fee7-40f0-aa68-df7ad983863e}, !- Space Type Name
  ,                                       !- Default Construction Set Name
  ,                                       !- Default Schedule Set Name
  -0,                                     !- Direction of Relative North {deg}
  0,                                      !- X Origin {m}
  0,                                      !- Y Origin {m}
  0,                                      !- Z Origin {m}
  ,                                       !- Building Story Name
  {f6e7dfde-8d4f-4e9f-b648-1d43c531bc7b}; !- Thermal Zone Name

OS:Surface,
  {5c0ef345-7a5c-4b30-9ffd-f43502464189}, !- Handle
  Surface 1,                              !- Name
  Floor,                                  !- Surface Type
  ,                                       !- Construction Name
  {be723ba3-b946-4130-97e4-b5c08393f14f}, !- Space Name
  Foundation,                             !- Outside Boundary Condition
  ,                                       !- Outside Boundary Condition Object
  NoSun,                                  !- Sun Exposure
  NoWind,                                 !- Wind Exposure
  ,                                       !- View Factor to Ground
  ,                                       !- Number of Vertices
  5.57695129776527, -3.048, 0,            !- X,Y,Z Vertex 1 {m}
  5.57695129776527, 3.048, 0,             !- X,Y,Z Vertex 2 {m}
  11.6729512977653, 3.048, 0,             !- X,Y,Z Vertex 3 {m}
  11.6729512977653, -3.048, 0;            !- X,Y,Z Vertex 4 {m}

OS:Surface,
  {cf1046df-1b35-4b91-be5a-1e911fe243e3}, !- Handle
  Surface 2,                              !- Name
  Wall,                                   !- Surface Type
  ,                                       !- Construction Name
  {be723ba3-b946-4130-97e4-b5c08393f14f}, !- Space Name
  Surface,                                !- Outside Boundary Condition
  {8e22a234-d250-4de5-bb49-a27505bfc618}, !- Outside Boundary Condition Object
  NoSun,                                  !- Sun Exposure
  NoWind,                                 !- Wind Exposure
  ,                                       !- View Factor to Ground
  ,                                       !- Number of Vertices
  5.57695129776527, 3.048, 2.4384,        !- X,Y,Z Vertex 1 {m}
  5.57695129776527, 3.048, 0,             !- X,Y,Z Vertex 2 {m}
  5.57695129776527, 0, 0,                 !- X,Y,Z Vertex 3 {m}
  5.57695129776527, 0, 2.4384;            !- X,Y,Z Vertex 4 {m}

OS:Surface,
  {c28160fa-33bb-49cc-b165-4515a7f8925e}, !- Handle
  Surface 3,                              !- Name
  Wall,                                   !- Surface Type
  ,                                       !- Construction Name
  {be723ba3-b946-4130-97e4-b5c08393f14f}, !- Space Name
  Surface,                                !- Outside Boundary Condition
  {709ce3ac-72f1-48de-afec-00ecc7f9dc11}, !- Outside Boundary Condition Object
  NoSun,                                  !- Sun Exposure
  NoWind,                                 !- Wind Exposure
  ,                                       !- View Factor to Ground
  ,                                       !- Number of Vertices
  11.6729512977653, 3.048, 2.4384,        !- X,Y,Z Vertex 1 {m}
  11.6729512977653, 3.048, 0,             !- X,Y,Z Vertex 2 {m}
  5.57695129776527, 3.048, 0,             !- X,Y,Z Vertex 3 {m}
  5.57695129776527, 3.048, 2.4384;        !- X,Y,Z Vertex 4 {m}

OS:Surface,
  {4e324691-3e58-4847-9287-aec19cc78943}, !- Handle
  Surface 4,                              !- Name
  Wall,                                   !- Surface Type
  ,                                       !- Construction Name
  {be723ba3-b946-4130-97e4-b5c08393f14f}, !- Space Name
  Outdoors,                               !- Outside Boundary Condition
  ,                                       !- Outside Boundary Condition Object
  SunExposed,                             !- Sun Exposure
  WindExposed,                            !- Wind Exposure
  ,                                       !- View Factor to Ground
  ,                                       !- Number of Vertices
  11.6729512977653, -3.048, 2.4384,       !- X,Y,Z Vertex 1 {m}
  11.6729512977653, -3.048, 0,            !- X,Y,Z Vertex 2 {m}
  11.6729512977653, 3.048, 0,             !- X,Y,Z Vertex 3 {m}
  11.6729512977653, 3.048, 2.4384;        !- X,Y,Z Vertex 4 {m}

OS:Surface,
  {2aed976d-f5eb-4aeb-bead-67be7dae1f7e}, !- Handle
  Surface 5,                              !- Name
  Wall,                                   !- Surface Type
  ,                                       !- Construction Name
  {be723ba3-b946-4130-97e4-b5c08393f14f}, !- Space Name
  Outdoors,                               !- Outside Boundary Condition
  ,                                       !- Outside Boundary Condition Object
  SunExposed,                             !- Sun Exposure
  WindExposed,                            !- Wind Exposure
  ,                                       !- View Factor to Ground
  ,                                       !- Number of Vertices
  5.57695129776527, -3.048, 2.4384,       !- X,Y,Z Vertex 1 {m}
  5.57695129776527, -3.048, 0,            !- X,Y,Z Vertex 2 {m}
  11.6729512977653, -3.048, 0,            !- X,Y,Z Vertex 3 {m}
  11.6729512977653, -3.048, 2.4384;       !- X,Y,Z Vertex 4 {m}

OS:Surface,
  {9b3bfb76-fe86-4f6b-8df3-33cb9701cdd9}, !- Handle
  Surface 6,                              !- Name
  RoofCeiling,                            !- Surface Type
  ,                                       !- Construction Name
  {be723ba3-b946-4130-97e4-b5c08393f14f}, !- Space Name
  Surface,                                !- Outside Boundary Condition
  {7946e02f-ea6f-43d5-91b5-0c0592322566}, !- Outside Boundary Condition Object
  NoSun,                                  !- Sun Exposure
  NoWind,                                 !- Wind Exposure
  ,                                       !- View Factor to Ground
  ,                                       !- Number of Vertices
  11.6729512977653, -3.048, 2.4384,       !- X,Y,Z Vertex 1 {m}
  11.6729512977653, 3.048, 2.4384,        !- X,Y,Z Vertex 2 {m}
  5.57695129776527, 3.048, 2.4384,        !- X,Y,Z Vertex 3 {m}
  5.57695129776527, -3.048, 2.4384;       !- X,Y,Z Vertex 4 {m}

OS:SpaceType,
  {8e9d6d51-fee7-40f0-aa68-df7ad983863e}, !- Handle
  Space Type 1,                           !- Name
  ,                                       !- Default Construction Set Name
  ,                                       !- Default Schedule Set Name
  ,                                       !- Group Rendering Name
  ,                                       !- Design Specification Outdoor Air Object Name
  ,                                       !- Standards Template
  ,                                       !- Standards Building Type
  garage;                                 !- Standards Space Type

OS:Space,
  {f8332d3d-12f1-4d59-9904-fceaf8d363f4}, !- Handle
  living space,                           !- Name
  {5e371b88-620d-4729-aa31-e8c6991ea3d2}, !- Space Type Name
  ,                                       !- Default Construction Set Name
  ,                                       !- Default Schedule Set Name
  -0,                                     !- Direction of Relative North {deg}
  0,                                      !- X Origin {m}
  0,                                      !- Y Origin {m}
  0,                                      !- Z Origin {m}
  ,                                       !- Building Story Name
  {91b5493f-5bd3-4be7-a730-ca985dadf9a9}, !- Thermal Zone Name
  ,                                       !- Part of Total Floor Area
  ,                                       !- Design Specification Outdoor Air Object Name
  {17b8b86b-6f63-4092-a46f-ada947c4b895}; !- Building Unit Name

OS:Surface,
  {ac3ec6bc-ce9a-4292-8d3d-3abc97dedddc}, !- Handle
  Surface 7,                              !- Name
  Floor,                                  !- Surface Type
  ,                                       !- Construction Name
  {f8332d3d-12f1-4d59-9904-fceaf8d363f4}, !- Space Name
  Surface,                                !- Outside Boundary Condition
  {0b0bb3a8-9afc-45ee-b374-7904a278ec68}, !- Outside Boundary Condition Object
  NoSun,                                  !- Sun Exposure
  NoWind,                                 !- Wind Exposure
  ,                                       !- View Factor to Ground
  ,                                       !- Number of Vertices
  0, 0, 0,                                !- X,Y,Z Vertex 1 {m}
  0, 5.83647564888264, 0,                 !- X,Y,Z Vertex 2 {m}
  11.6729512977653, 5.83647564888264, 0,  !- X,Y,Z Vertex 3 {m}
  11.6729512977653, 3.048, 0,             !- X,Y,Z Vertex 4 {m}
  5.57695129776527, 3.048, 0,             !- X,Y,Z Vertex 5 {m}
  5.57695129776527, 0, 0;                 !- X,Y,Z Vertex 6 {m}

OS:Surface,
  {f9726fed-639c-454f-86da-3b374346dccb}, !- Handle
  Surface 8,                              !- Name
  Wall,                                   !- Surface Type
  ,                                       !- Construction Name
  {f8332d3d-12f1-4d59-9904-fceaf8d363f4}, !- Space Name
  Outdoors,                               !- Outside Boundary Condition
  ,                                       !- Outside Boundary Condition Object
  SunExposed,                             !- Sun Exposure
  WindExposed,                            !- Wind Exposure
  ,                                       !- View Factor to Ground
  ,                                       !- Number of Vertices
  0, 5.83647564888264, 2.4384,            !- X,Y,Z Vertex 1 {m}
  0, 5.83647564888264, 0,                 !- X,Y,Z Vertex 2 {m}
  0, 0, 0,                                !- X,Y,Z Vertex 3 {m}
  0, 0, 2.4384;                           !- X,Y,Z Vertex 4 {m}

OS:Surface,
  {8faff2ca-bb54-49ce-ba3f-5428ebd52999}, !- Handle
  Surface 9,                              !- Name
  Wall,                                   !- Surface Type
  ,                                       !- Construction Name
  {f8332d3d-12f1-4d59-9904-fceaf8d363f4}, !- Space Name
  Outdoors,                               !- Outside Boundary Condition
  ,                                       !- Outside Boundary Condition Object
  SunExposed,                             !- Sun Exposure
  WindExposed,                            !- Wind Exposure
  ,                                       !- View Factor to Ground
  ,                                       !- Number of Vertices
  11.6729512977653, 5.83647564888264, 2.4384, !- X,Y,Z Vertex 1 {m}
  11.6729512977653, 5.83647564888264, 0,  !- X,Y,Z Vertex 2 {m}
  0, 5.83647564888264, 0,                 !- X,Y,Z Vertex 3 {m}
  0, 5.83647564888264, 2.4384;            !- X,Y,Z Vertex 4 {m}

OS:Surface,
  {b10356ac-41ca-4df6-9d9c-b8ffbaeb2df9}, !- Handle
  Surface 10,                             !- Name
  Wall,                                   !- Surface Type
  ,                                       !- Construction Name
  {f8332d3d-12f1-4d59-9904-fceaf8d363f4}, !- Space Name
  Outdoors,                               !- Outside Boundary Condition
  ,                                       !- Outside Boundary Condition Object
  SunExposed,                             !- Sun Exposure
  WindExposed,                            !- Wind Exposure
  ,                                       !- View Factor to Ground
  ,                                       !- Number of Vertices
  11.6729512977653, 3.048, 2.4384,        !- X,Y,Z Vertex 1 {m}
  11.6729512977653, 3.048, 0,             !- X,Y,Z Vertex 2 {m}
  11.6729512977653, 5.83647564888264, 0,  !- X,Y,Z Vertex 3 {m}
  11.6729512977653, 5.83647564888264, 2.4384; !- X,Y,Z Vertex 4 {m}

OS:Surface,
  {709ce3ac-72f1-48de-afec-00ecc7f9dc11}, !- Handle
  Surface 11,                             !- Name
  Wall,                                   !- Surface Type
  ,                                       !- Construction Name
  {f8332d3d-12f1-4d59-9904-fceaf8d363f4}, !- Space Name
  Surface,                                !- Outside Boundary Condition
  {c28160fa-33bb-49cc-b165-4515a7f8925e}, !- Outside Boundary Condition Object
  NoSun,                                  !- Sun Exposure
  NoWind,                                 !- Wind Exposure
  ,                                       !- View Factor to Ground
  ,                                       !- Number of Vertices
  5.57695129776527, 3.048, 2.4384,        !- X,Y,Z Vertex 1 {m}
  5.57695129776527, 3.048, 0,             !- X,Y,Z Vertex 2 {m}
  11.6729512977653, 3.048, 0,             !- X,Y,Z Vertex 3 {m}
  11.6729512977653, 3.048, 2.4384;        !- X,Y,Z Vertex 4 {m}

OS:Surface,
  {8e22a234-d250-4de5-bb49-a27505bfc618}, !- Handle
  Surface 12,                             !- Name
  Wall,                                   !- Surface Type
  ,                                       !- Construction Name
  {f8332d3d-12f1-4d59-9904-fceaf8d363f4}, !- Space Name
  Surface,                                !- Outside Boundary Condition
  {cf1046df-1b35-4b91-be5a-1e911fe243e3}, !- Outside Boundary Condition Object
  NoSun,                                  !- Sun Exposure
  NoWind,                                 !- Wind Exposure
  ,                                       !- View Factor to Ground
  ,                                       !- Number of Vertices
  5.57695129776527, 0, 2.4384,            !- X,Y,Z Vertex 1 {m}
  5.57695129776527, 0, 0,                 !- X,Y,Z Vertex 2 {m}
  5.57695129776527, 3.048, 0,             !- X,Y,Z Vertex 3 {m}
  5.57695129776527, 3.048, 2.4384;        !- X,Y,Z Vertex 4 {m}

OS:Surface,
  {02d0e8c0-308f-401f-ac82-217c9fb4b4ca}, !- Handle
  Surface 13,                             !- Name
  Wall,                                   !- Surface Type
  ,                                       !- Construction Name
  {f8332d3d-12f1-4d59-9904-fceaf8d363f4}, !- Space Name
  Outdoors,                               !- Outside Boundary Condition
  ,                                       !- Outside Boundary Condition Object
  SunExposed,                             !- Sun Exposure
  WindExposed,                            !- Wind Exposure