!- NOTE: Auto-generated from /test/osw_files/SFD_2000sqft_2story_FB_GRG_UA_3Beds_2Baths_Denver_WHTankless_SHW.osw

OS:Version,
  {bd6050db-cdc4-400c-95a0-e6f6d55ea8df}, !- Handle
  2.6.1;                                  !- Version Identifier

OS:Building,
  {44890b0b-cd1b-435e-b7a4-5502c32ee3b3}, !- Handle
  Building 1,                             !- Name
  ,                                       !- Building Sector Type
  0,                                      !- North Axis {deg}
  ,                                       !- Nominal Floor to Floor Height {m}
  ,                                       !- Space Type Name
  ,                                       !- Default Construction Set Name
  ,                                       !- Default Schedule Set Name
  3,                                      !- Standards Number of Stories
  2,                                      !- Standards Number of Above Ground Stories
  singlefamilydetached,                   !- Standards Building Type
  1;                                      !- Standards Number of Living Units

OS:Facility,
  {536202f7-c400-4fba-8caf-3a3d0d5a7fca}; !- Handle

OS:Site,
  {0f5a451b-845b-4949-ba8f-ef79144580e2}, !- Handle
  Denver Intl Ap_CO_USA,                  !- Name
  39.83,                                  !- Latitude {deg}
  -104.65,                                !- Longitude {deg}
  -7,                                     !- Time Zone {hr}
  1650,                                   !- Elevation {m}
  ;                                       !- Terrain

OS:SimulationControl,
  {fd29fab6-416d-40ad-9f22-b3cce409633d}, !- Handle
  ,                                       !- Do Zone Sizing Calculation
  ,                                       !- Do System Sizing Calculation
  ,                                       !- Do Plant Sizing Calculation
  No;                                     !- Run Simulation for Sizing Periods

OS:Sizing:Parameters,
  {d2a3e4d1-f6a9-47e8-94e9-ef5087a92666}, !- Handle
  1.25,                                   !- Heating Sizing Factor
  1.15;                                   !- Cooling Sizing Factor

OS:Timestep,
  {3fd379c8-b6e5-4a6d-b7a2-e02534187333}, !- Handle
  6;                                      !- Number of Timesteps per Hour

OS:ShadowCalculation,
  {48f4a71a-d5bd-4803-a7b9-98c7523ddf00}, !- Handle
  20,                                     !- Calculation Frequency
  200;                                    !- Maximum Figures in Shadow Overlap Calculations

OS:HeatBalanceAlgorithm,
  {da542364-0596-491a-a2c4-18c19cc7ce45}, !- Handle
  ConductionTransferFunction,             !- Algorithm
  200;                                    !- Surface Temperature Upper Limit {C}

OS:RunPeriod,
  {1980c9be-4533-4bf1-96fa-9b5ddad470af}, !- Handle
  Run Period 1,                           !- Name
  1,                                      !- Begin Month
  1,                                      !- Begin Day of Month
  12,                                     !- End Month
  31,                                     !- End Day of Month
  ,                                       !- Use Weather File Holidays and Special Days
  ,                                       !- Use Weather File Daylight Saving Period
  ,                                       !- Apply Weekend Holiday Rule
  ,                                       !- Use Weather File Rain Indicators
  ,                                       !- Use Weather File Snow Indicators
  ;                                       !- Number of Times Runperiod to be Repeated

OS:LifeCycleCost:Parameters,
  {64f61f8e-203a-44d5-9bc6-e69c2d64fe6e}, !- Handle
  ,                                       !- Analysis Type
  ,                                       !- Discounting Convention
  ,                                       !- Inflation Approach
  ,                                       !- Real Discount Rate
  ,                                       !- Nominal Discount Rate
  ,                                       !- Inflation
  ,                                       !- Base Date Month
  ,                                       !- Base Date Year
  ,                                       !- Service Date Month
  ,                                       !- Service Date Year
  ;                                       !- Length of Study Period in Years

OS:ThermalZone,
  {035036b0-fe8e-4720-a917-e061e07b51a1}, !- Handle
  living zone,                            !- Name
  ,                                       !- Multiplier
  ,                                       !- Ceiling Height {m}
  ,                                       !- Volume {m3}
  ,                                       !- Floor Area {m2}
  ,                                       !- Zone Inside Convection Algorithm
  ,                                       !- Zone Outside Convection Algorithm
  ,                                       !- Zone Conditioning Equipment List Name
  {18bf6377-52d2-4a45-adfc-a07a4872f061}, !- Zone Air Inlet Port List
  {f67daf84-ab2f-4b2d-820a-5548ecc05bfa}, !- Zone Air Exhaust Port List
  {826db254-6b75-496e-aff6-812a8fef2d7e}, !- Zone Air Node Name
  {01c33de5-93c6-4915-a727-32116f365c20}, !- Zone Return Air Port List
  ,                                       !- Primary Daylighting Control Name
  ,                                       !- Fraction of Zone Controlled by Primary Daylighting Control
  ,                                       !- Secondary Daylighting Control Name
  ,                                       !- Fraction of Zone Controlled by Secondary Daylighting Control
  ,                                       !- Illuminance Map Name
  ,                                       !- Group Rendering Name
  ,                                       !- Thermostat Name
  No;                                     !- Use Ideal Air Loads

OS:Node,
  {c3a8e8e7-1f1d-4c72-a604-eff0e57897de}, !- Handle
  Node 1,                                 !- Name
  {826db254-6b75-496e-aff6-812a8fef2d7e}, !- Inlet Port
  ;                                       !- Outlet Port

OS:Connection,
  {826db254-6b75-496e-aff6-812a8fef2d7e}, !- Handle
  {fa9ba397-80bc-4f68-ae1f-51cdede57e87}, !- Name
  {035036b0-fe8e-4720-a917-e061e07b51a1}, !- Source Object
  11,                                     !- Outlet Port
  {c3a8e8e7-1f1d-4c72-a604-eff0e57897de}, !- Target Object
  2;                                      !- Inlet Port

OS:PortList,
  {18bf6377-52d2-4a45-adfc-a07a4872f061}, !- Handle
  {7d44faed-c956-4bc0-882f-25ea7a98a2ef}, !- Name
  {035036b0-fe8e-4720-a917-e061e07b51a1}; !- HVAC Component

OS:PortList,
  {f67daf84-ab2f-4b2d-820a-5548ecc05bfa}, !- Handle
  {fa2118d1-5971-4fea-a452-c17e9f4cbdb9}, !- Name
  {035036b0-fe8e-4720-a917-e061e07b51a1}; !- HVAC Component

OS:PortList,
  {01c33de5-93c6-4915-a727-32116f365c20}, !- Handle
  {9de4a6a7-a3a3-47a8-8267-66978458bd72}, !- Name
  {035036b0-fe8e-4720-a917-e061e07b51a1}; !- HVAC Component

OS:Sizing:Zone,
  {34311156-8392-4f42-a84a-dc0a185020c8}, !- Handle
  {035036b0-fe8e-4720-a917-e061e07b51a1}, !- Zone or ZoneList Name
  SupplyAirTemperature,                   !- Zone Cooling Design Supply Air Temperature Input Method
  14,                                     !- Zone Cooling Design Supply Air Temperature {C}
  11.11,                                  !- Zone Cooling Design Supply Air Temperature Difference {deltaC}
  SupplyAirTemperature,                   !- Zone Heating Design Supply Air Temperature Input Method
  40,                                     !- Zone Heating Design Supply Air Temperature {C}
  11.11,                                  !- Zone Heating Design Supply Air Temperature Difference {deltaC}
  0.0085,                                 !- Zone Cooling Design Supply Air Humidity Ratio {kg-H2O/kg-air}
  0.008,                                  !- Zone Heating Design Supply Air Humidity Ratio {kg-H2O/kg-air}
  ,                                       !- Zone Heating Sizing Factor
  ,                                       !- Zone Cooling Sizing Factor
  DesignDay,                              !- Cooling Design Air Flow Method
  ,                                       !- Cooling Design Air Flow Rate {m3/s}
  ,                                       !- Cooling Minimum Air Flow per Zone Floor Area {m3/s-m2}
  ,                                       !- Cooling Minimum Air Flow {m3/s}
  ,                                       !- Cooling Minimum Air Flow Fraction
  DesignDay,                              !- Heating Design Air Flow Method
  ,                                       !- Heating Design Air Flow Rate {m3/s}
  ,                                       !- Heating Maximum Air Flow per Zone Floor Area {m3/s-m2}
  ,                                       !- Heating Maximum Air Flow {m3/s}
  ,                                       !- Heating Maximum Air Flow Fraction
  ,                                       !- Design Zone Air Distribution Effectiveness in Cooling Mode
  ,                                       !- Design Zone Air Distribution Effectiveness in Heating Mode
  No,                                     !- Account for Dedicated Outdoor Air System
  NeutralSupplyAir,                       !- Dedicated Outdoor Air System Control Strategy
  autosize,                               !- Dedicated Outdoor Air Low Setpoint Temperature for Design {C}
  autosize;                               !- Dedicated Outdoor Air High Setpoint Temperature for Design {C}

OS:ZoneHVAC:EquipmentList,
  {075f872c-eaff-4769-ba14-b8fc0a14a2d3}, !- Handle
  Zone HVAC Equipment List 1,             !- Name
  {035036b0-fe8e-4720-a917-e061e07b51a1}; !- Thermal Zone

OS:ThermalZone,
  {59dce911-3c34-4c9f-b17b-53ba433651d5}, !- Handle
  garage zone,                            !- Name
  ,                                       !- Multiplier
  ,                                       !- Ceiling Height {m}
  ,                                       !- Volume {m3}
  ,                                       !- Floor Area {m2}
  ,                                       !- Zone Inside Convection Algorithm
  ,                                       !- Zone Outside Convection Algorithm
  ,                                       !- Zone Conditioning Equipment List Name
  {f2b52ff7-7db6-4642-b312-4a4ff27707fa}, !- Zone Air Inlet Port List
  {7a91ff6b-0c3e-4676-9357-2417d41b7571}, !- Zone Air Exhaust Port List
  {bc66db04-8249-465b-98b4-f455d3ef1407}, !- Zone Air Node Name
  {df85e0aa-91c9-42d4-9444-a817b4982d22}, !- Zone Return Air Port List
  ,                                       !- Primary Daylighting Control Name
  ,                                       !- Fraction of Zone Controlled by Primary Daylighting Control
  ,                                       !- Secondary Daylighting Control Name
  ,                                       !- Fraction of Zone Controlled by Secondary Daylighting Control
  ,                                       !- Illuminance Map Name
  ,                                       !- Group Rendering Name
  ,                                       !- Thermostat Name
  No;                                     !- Use Ideal Air Loads

OS:Node,
  {646c7491-b546-4200-bc6c-e6561b9f3569}, !- Handle
  Node 2,                                 !- Name
  {bc66db04-8249-465b-98b4-f455d3ef1407}, !- Inlet Port
  ;                                       !- Outlet Port

OS:Connection,
  {bc66db04-8249-465b-98b4-f455d3ef1407}, !- Handle
  {6e6ec73d-e716-4685-b6c1-d56b72da50c9}, !- Name
  {59dce911-3c34-4c9f-b17b-53ba433651d5}, !- Source Object
  11,                                     !- Outlet Port
  {646c7491-b546-4200-bc6c-e6561b9f3569}, !- Target Object
  2;                                      !- Inlet Port

OS:PortList,
  {f2b52ff7-7db6-4642-b312-4a4ff27707fa}, !- Handle
  {91789c35-07de-4809-8649-2a2c02c3f106}, !- Name
  {59dce911-3c34-4c9f-b17b-53ba433651d5}; !- HVAC Component

OS:PortList,
  {7a91ff6b-0c3e-4676-9357-2417d41b7571}, !- Handle
  {2712f13b-ebd9-44fb-bfb1-ff2c3eda4540}, !- Name
  {59dce911-3c34-4c9f-b17b-53ba433651d5}; !- HVAC Component

OS:PortList,
  {df85e0aa-91c9-42d4-9444-a817b4982d22}, !- Handle
  {46aa5ba9-8d26-4b13-8cd0-3b52fdb0851c}, !- Name
  {59dce911-3c34-4c9f-b17b-53ba433651d5}; !- HVAC Component

OS:Sizing:Zone,
  {6762fbce-2a10-46e3-98b3-2bd1a2354d6d}, !- Handle
  {59dce911-3c34-4c9f-b17b-53ba433651d5}, !- Zone or ZoneList Name
  SupplyAirTemperature,                   !- Zone Cooling Design Supply Air Temperature Input Method
  14,                                     !- Zone Cooling Design Supply Air Temperature {C}
  11.11,                                  !- Zone Cooling Design Supply Air Temperature Difference {deltaC}
  SupplyAirTemperature,                   !- Zone Heating Design Supply Air Temperature Input Method
  40,                                     !- Zone Heating Design Supply Air Temperature {C}
  11.11,                                  !- Zone Heating Design Supply Air Temperature Difference {deltaC}
  0.0085,                                 !- Zone Cooling Design Supply Air Humidity Ratio {kg-H2O/kg-air}
  0.008,                                  !- Zone Heating Design Supply Air Humidity Ratio {kg-H2O/kg-air}
  ,                                       !- Zone Heating Sizing Factor
  ,                                       !- Zone Cooling Sizing Factor
  DesignDay,                              !- Cooling Design Air Flow Method
  ,                                       !- Cooling Design Air Flow Rate {m3/s}
  ,                                       !- Cooling Minimum Air Flow per Zone Floor Area {m3/s-m2}
  ,                                       !- Cooling Minimum Air Flow {m3/s}
  ,                                       !- Cooling Minimum Air Flow Fraction
  DesignDay,                              !- Heating Design Air Flow Method
  ,                                       !- Heating Design Air Flow Rate {m3/s}
  ,                                       !- Heating Maximum Air Flow per Zone Floor Area {m3/s-m2}
  ,                                       !- Heating Maximum Air Flow {m3/s}
  ,                                       !- Heating Maximum Air Flow Fraction
  ,                                       !- Design Zone Air Distribution Effectiveness in Cooling Mode
  ,                                       !- Design Zone Air Distribution Effectiveness in Heating Mode
  No,                                     !- Account for Dedicated Outdoor Air System
  NeutralSupplyAir,                       !- Dedicated Outdoor Air System Control Strategy
  autosize,                               !- Dedicated Outdoor Air Low Setpoint Temperature for Design {C}
  autosize;                               !- Dedicated Outdoor Air High Setpoint Temperature for Design {C}

OS:ZoneHVAC:EquipmentList,
  {185e6864-d7f0-4bc2-9103-e5a77e78d249}, !- Handle
  Zone HVAC Equipment List 2,             !- Name
  {59dce911-3c34-4c9f-b17b-53ba433651d5}; !- Thermal Zone

OS:Space,
  {7997431a-2290-44a0-8cdc-a9fa6f17a030}, !- Handle
  garage space,                           !- Name
  {934ef979-fff4-425a-9b08-055aa9b11772}, !- Space Type Name
  ,                                       !- Default Construction Set Name
  ,                                       !- Default Schedule Set Name
  -0,                                     !- Direction of Relative North {deg}
  0,                                      !- X Origin {m}
  0,                                      !- Y Origin {m}
  0,                                      !- Z Origin {m}
  ,                                       !- Building Story Name
  {59dce911-3c34-4c9f-b17b-53ba433651d5}; !- Thermal Zone Name

OS:Surface,
  {c28dface-893a-4295-9f9d-1be0ce55a7d8}, !- Handle
  Surface 1,                              !- Name
  Floor,                                  !- Surface Type
  ,                                       !- Construction Name
  {7997431a-2290-44a0-8cdc-a9fa6f17a030}, !- Space Name
  Foundation,                             !- Outside Boundary Condition
  ,                                       !- Outside Boundary Condition Object
  NoSun,                                  !- Sun Exposure
  NoWind,                                 !- Wind Exposure
  ,                                       !- View Factor to Ground
  ,                                       !- Number of Vertices
  5.57695129776527, -3.048, 0,            !- X,Y,Z Vertex 1 {m}
  5.57695129776527, 3.048, 0,             !- X,Y,Z Vertex 2 {m}
  11.6729512977653, 3.048, 0,             !- X,Y,Z Vertex 3 {m}
  11.6729512977653, -3.048, 0;            !- X,Y,Z Vertex 4 {m}

OS:Surface,
  {7225c549-809f-42a0-9b52-212c31c4fd5d}, !- Handle
  Surface 2,                              !- Name
  Wall,                                   !- Surface Type
  ,                                       !- Construction Name
  {7997431a-2290-44a0-8cdc-a9fa6f17a030}, !- Space Name
  Surface,                                !- Outside Boundary Condition
  {012a09f4-a707-4532-858d-dc58d0658d00}, !- Outside Boundary Condition Object
  NoSun,                                  !- Sun Exposure
  NoWind,                                 !- Wind Exposure
  ,                                       !- View Factor to Ground
  ,                                       !- Number of Vertices
  5.57695129776527, 3.048, 2.4384,        !- X,Y,Z Vertex 1 {m}
  5.57695129776527, 3.048, 0,             !- X,Y,Z Vertex 2 {m}
  5.57695129776527, 0, 0,                 !- X,Y,Z Vertex 3 {m}
  5.57695129776527, 0, 2.4384;            !- X,Y,Z Vertex 4 {m}

OS:Surface,
  {2f80a2a5-eae8-4589-925e-351b21cb6ab1}, !- Handle
  Surface 3,                              !- Name
  Wall,                                   !- Surface Type
  ,                                       !- Construction Name
  {7997431a-2290-44a0-8cdc-a9fa6f17a030}, !- Space Name
  Surface,                                !- Outside Boundary Condition
  {e709f8b4-8502-418b-a887-6b1b231a6b5e}, !- Outside Boundary Condition Object
  NoSun,                                  !- Sun Exposure
  NoWind,                                 !- Wind Exposure
  ,                                       !- View Factor to Ground
  ,                                       !- Number of Vertices
  11.6729512977653, 3.048, 2.4384,        !- X,Y,Z Vertex 1 {m}
  11.6729512977653, 3.048, 0,             !- X,Y,Z Vertex 2 {m}
  5.57695129776527, 3.048, 0,             !- X,Y,Z Vertex 3 {m}
  5.57695129776527, 3.048, 2.4384;        !- X,Y,Z Vertex 4 {m}

OS:Surface,
  {4bc70e30-559c-47ea-9bd6-79b96708193d}, !- Handle
  Surface 4,                              !- Name
  Wall,                                   !- Surface Type
  ,                                       !- Construction Name
  {7997431a-2290-44a0-8cdc-a9fa6f17a030}, !- Space Name
  Outdoors,                               !- Outside Boundary Condition
  ,                                       !- Outside Boundary Condition Object
  SunExposed,                             !- Sun Exposure
  WindExposed,                            !- Wind Exposure
  ,                                       !- View Factor to Ground
  ,                                       !- Number of Vertices
  11.6729512977653, -3.048, 2.4384,       !- X,Y,Z Vertex 1 {m}
  11.6729512977653, -3.048, 0,            !- X,Y,Z Vertex 2 {m}
  11.6729512977653, 3.048, 0,             !- X,Y,Z Vertex 3 {m}
  11.6729512977653, 3.048, 2.4384;        !- X,Y,Z Vertex 4 {m}

OS:Surface,
  {bde8e384-0005-43f6-a8c6-df37a77dc2f5}, !- Handle
  Surface 5,                              !- Name
  Wall,                                   !- Surface Type
  ,                                       !- Construction Name
  {7997431a-2290-44a0-8cdc-a9fa6f17a030}, !- Space Name
  Outdoors,                               !- Outside Boundary Condition
  ,                                       !- Outside Boundary Condition Object
  SunExposed,                             !- Sun Exposure
  WindExposed,                            !- Wind Exposure
  ,                                       !- View Factor to Ground
  ,                                       !- Number of Vertices
  5.57695129776527, -3.048, 2.4384,       !- X,Y,Z Vertex 1 {m}
  5.57695129776527, -3.048, 0,            !- X,Y,Z Vertex 2 {m}
  11.6729512977653, -3.048, 0,            !- X,Y,Z Vertex 3 {m}
  11.6729512977653, -3.048, 2.4384;       !- X,Y,Z Vertex 4 {m}

OS:Surface,
  {d4b02775-30c5-4c97-b2e5-1c4bbd0d6fdd}, !- Handle
  Surface 6,                              !- Name
  RoofCeiling,                            !- Surface Type
  ,                                       !- Construction Name
  {7997431a-2290-44a0-8cdc-a9fa6f17a030}, !- Space Name
  Surface,                                !- Outside Boundary Condition
  {56c52fc1-cf4b-40fd-9393-15b0ab6a972d}, !- Outside Boundary Condition Object
  NoSun,                                  !- Sun Exposure
  NoWind,                                 !- Wind Exposure
  ,                                       !- View Factor to Ground
  ,                                       !- Number of Vertices
  11.6729512977653, -3.048, 2.4384,       !- X,Y,Z Vertex 1 {m}
  11.6729512977653, 3.048, 2.4384,        !- X,Y,Z Vertex 2 {m}
  5.57695129776527, 3.048, 2.4384,        !- X,Y,Z Vertex 3 {m}
  5.57695129776527, -3.048, 2.4384;       !- X,Y,Z Vertex 4 {m}

OS:SpaceType,
  {934ef979-fff4-425a-9b08-055aa9b11772}, !- Handle
  Space Type 1,                           !- Name
  ,                                       !- Default Construction Set Name
  ,                                       !- Default Schedule Set Name
  ,                                       !- Group Rendering Name
  ,                                       !- Design Specification Outdoor Air Object Name
  ,                                       !- Standards Building Type
  garage;                                 !- Standards Space Type

OS:Space,
  {f5209eb5-a8ac-4fcd-8c35-6514d4239f75}, !- Handle
  living space,                           !- Name
  {17193f14-e021-4291-b145-b08315bb1926}, !- Space Type Name
  ,                                       !- Default Construction Set Name
  ,                                       !- Default Schedule Set Name
  -0,                                     !- Direction of Relative North {deg}
  0,                                      !- X Origin {m}
  0,                                      !- Y Origin {m}
  0,                                      !- Z Origin {m}
  ,                                       !- Building Story Name
  {035036b0-fe8e-4720-a917-e061e07b51a1}, !- Thermal Zone Name
  ,                                       !- Part of Total Floor Area
  ,                                       !- Design Specification Outdoor Air Object Name
  {9648cb47-56ce-4785-b972-53e03a543d06}; !- Building Unit Name

OS:Surface,
  {853400f1-d312-497b-b7fb-1dcc79a982f3}, !- Handle
  Surface 7,                              !- Name
  Floor,                                  !- Surface Type
  ,                                       !- Construction Name
  {f5209eb5-a8ac-4fcd-8c35-6514d4239f75}, !- Space Name
  Surface,                                !- Outside Boundary Condition
  {0dd5a8fa-7984-4767-8644-0996807687b6}, !- Outside Boundary Condition Object
  NoSun,                                  !- Sun Exposure
  NoWind,                                 !- Wind Exposure
  ,                                       !- View Factor to Ground
  ,                                       !- Number of Vertices
  0, 0, 0,                                !- X,Y,Z Vertex 1 {m}
  0, 5.83647564888264, 0,                 !- X,Y,Z Vertex 2 {m}
  11.6729512977653, 5.83647564888264, 0,  !- X,Y,Z Vertex 3 {m}
  11.6729512977653, 3.048, 0,             !- X,Y,Z Vertex 4 {m}
  5.57695129776527, 3.048, 0,             !- X,Y,Z Vertex 5 {m}
  5.57695129776527, 0, 0;                 !- X,Y,Z Vertex 6 {m}

OS:Surface,
  {79f52415-b9d3-46bb-99b6-6e2094aa2296}, !- Handle
  Surface 8,                              !- Name
  Wall,                                   !- Surface Type
  ,                                       !- Construction Name
  {f5209eb5-a8ac-4fcd-8c35-6514d4239f75}, !- Space Name
  Outdoors,                               !- Outside Boundary Condition
  ,                                       !- Outside Boundary Condition Object
  SunExposed,                             !- Sun Exposure
  WindExposed,                            !- Wind Exposure
  ,                                       !- View Factor to Ground
  ,                                       !- Number of Vertices
  0, 5.83647564888264, 2.4384,            !- X,Y,Z Vertex 1 {m}
  0, 5.83647564888264, 0,                 !- X,Y,Z Vertex 2 {m}
  0, 0, 0,                                !- X,Y,Z Vertex 3 {m}
  0, 0, 2.4384;                           !- X,Y,Z Vertex 4 {m}

OS:Surface,
  {97ad8e24-8ca2-4de7-acb9-66bd7220f36a}, !- Handle
  Surface 9,                              !- Name
  Wall,                                   !- Surface Type
  ,                                       !- Construction Name
  {f5209eb5-a8ac-4fcd-8c35-6514d4239f75}, !- Space Name
  Outdoors,                               !- Outside Boundary Condition
  ,                                       !- Outside Boundary Condition Object
  SunExposed,                             !- Sun Exposure
  WindExposed,                            !- Wind Exposure
  ,                                       !- View Factor to Ground
  ,                                       !- Number of Vertices
  11.6729512977653, 5.83647564888264, 2.4384, !- X,Y,Z Vertex 1 {m}
  11.6729512977653, 5.83647564888264, 0,  !- X,Y,Z Vertex 2 {m}
  0, 5.83647564888264, 0,                 !- X,Y,Z Vertex 3 {m}
  0, 5.83647564888264, 2.4384;            !- X,Y,Z Vertex 4 {m}

OS:Surface,
  {9ff32ce9-c4fb-4b3d-ad6f-d5aa6f4f6cf6}, !- Handle
  Surface 10,                             !- Name
  Wall,                                   !- Surface Type
  ,                                       !- Construction Name
  {f5209eb5-a8ac-4fcd-8c35-6514d4239f75}, !- Space Name
  Outdoors,                               !- Outside Boundary Condition
  ,                                       !- Outside Boundary Condition Object
  SunExposed,                             !- Sun Exposure
  WindExposed,                            !- Wind Exposure
  ,                                       !- View Factor to Ground
  ,                                       !- Number of Vertices
  11.6729512977653, 3.048, 2.4384,        !- X,Y,Z Vertex 1 {m}
  11.6729512977653, 3.048, 0,             !- X,Y,Z Vertex 2 {m}
  11.6729512977653, 5.83647564888264, 0,  !- X,Y,Z Vertex 3 {m}
  11.6729512977653, 5.83647564888264, 2.4384; !- X,Y,Z Vertex 4 {m}

OS:Surface,
  {e709f8b4-8502-418b-a887-6b1b231a6b5e}, !- Handle
  Surface 11,                             !- Name
  Wall,                                   !- Surface Type
  ,                                       !- Construction Name
  {f5209eb5-a8ac-4fcd-8c35-6514d4239f75}, !- Space Name
  Surface,                                !- Outside Boundary Condition
  {2f80a2a5-eae8-4589-925e-351b21cb6ab1}, !- Outside Boundary Condition Object
  NoSun,                                  !- Sun Exposure
  NoWind,                                 !- Wind Exposure
  ,                                       !- View Factor to Ground
  ,                                       !- Number of Vertices
  5.57695129776527, 3.048, 2.4384,        !- X,Y,Z Vertex 1 {m}
  5.57695129776527, 3.048, 0,             !- X,Y,Z Vertex 2 {m}
  11.6729512977653, 3.048, 0,             !- X,Y,Z Vertex 3 {m}
  11.6729512977653, 3.048, 2.4384;        !- X,Y,Z Vertex 4 {m}

OS:Surface,
  {012a09f4-a707-4532-858d-dc58d0658d00}, !- Handle
  Surface 12,                             !- Name
  Wall,                                   !- Surface Type
  ,                                       !- Construction Name
  {f5209eb5-a8ac-4fcd-8c35-6514d4239f75}, !- Space Name
  Surface,                                !- Outside Boundary Condition
  {7225c549-809f-42a0-9b52-212c31c4fd5d}, !- Outside Boundary Condition Object
  NoSun,                                  !- Sun Exposure
  NoWind,                                 !- Wind Exposure
  ,                                       !- View Factor to Ground
  ,                                       !- Number of Vertices
  5.57695129776527, 0, 2.4384,            !- X,Y,Z Vertex 1 {m}
  5.57695129776527, 0, 0,                 !- X,Y,Z Vertex 2 {m}
  5.57695129776527, 3.048, 0,             !- X,Y,Z Vertex 3 {m}
  5.57695129776527, 3.048, 2.4384;        !- X,Y,Z Vertex 4 {m}

OS:Surface,
  {1d35f19a-2199-4f76-b515-ed243e9d0864}, !- Handle
  Surface 13,                             !- Name
  Wall,                                   !- Surface Type
  ,                                       !- Construction Name
  {f5209eb5-a8ac-4fcd-8c35-6514d4239f75}, !- Space Name
  Outdoors,                               !- Outside Boundary Condition
  ,                                       !- Outside Boundary Condition Object
  SunExposed,                             !- Sun Exposure
  WindExposed,                            !- Wind Exposure
  ,                                       !- View Factor to Ground
  ,                                       !- Number of Vertices
  0, 0, 2.4384,                           !- X,Y,Z Vertex 1 {m}
  0, 0, 0,                                !- X,Y,Z Vertex 2 {m}
  5.57695129776527, 0, 0,                 !- X,Y,Z Vertex 3 {m}
  5.57695129776527, 0, 2.4384;            !- X,Y,Z Vertex 4 {m}

OS:Surface,
  {83a3f5c4-7dd3-44ba-9e82-77832377c625}, !- Handle
  Surface 14,                             !- Name
  RoofCeiling,                            !- Surface Type
  ,                                       !- Construction Name
  {f5209eb5-a8ac-4fcd-8c35-6514d4239f75}, !- Space Name
  Surface,                                !- Outside Boundary Condition