!- NOTE: Auto-generated from /test/osw_files/SFD_2000sqft_2story_FB_GRG_UA_3Beds_2Baths_Denver.osw

OS:Version,
  {071bebdb-7e50-4650-8ecf-dbb390c965aa}, !- Handle
  2.6.1;                                  !- Version Identifier

OS:Building,
  {7a0a1367-9691-4df5-a74f-37ebf12d21b7}, !- Handle
  Building 1,                             !- Name
  ,                                       !- Building Sector Type
  0,                                      !- North Axis {deg}
  ,                                       !- Nominal Floor to Floor Height {m}
  ,                                       !- Space Type Name
  ,                                       !- Default Construction Set Name
  ,                                       !- Default Schedule Set Name
  3,                                      !- Standards Number of Stories
  2,                                      !- Standards Number of Above Ground Stories
  singlefamilydetached,                   !- Standards Building Type
  1;                                      !- Standards Number of Living Units

OS:Facility,
  {64305d17-c263-46ec-b393-8670dafa2a8d}; !- Handle

OS:Site,
  {e1314f2a-c75a-4863-b318-0e10d6147242}, !- Handle
  Denver Intl Ap_CO_USA,                  !- Name
  39.83,                                  !- Latitude {deg}
  -104.65,                                !- Longitude {deg}
  -7,                                     !- Time Zone {hr}
  1650,                                   !- Elevation {m}
  ;                                       !- Terrain

OS:SimulationControl,
  {af7cc8d2-46dd-452b-b340-f8242981585f}, !- Handle
  ,                                       !- Do Zone Sizing Calculation
  ,                                       !- Do System Sizing Calculation
  ,                                       !- Do Plant Sizing Calculation
  No;                                     !- Run Simulation for Sizing Periods

OS:Sizing:Parameters,
  {165d435e-4bf8-43ed-889c-024749ea7231}, !- Handle
  1.25,                                   !- Heating Sizing Factor
  1.15;                                   !- Cooling Sizing Factor

OS:Timestep,
  {a4239d4c-9069-47e8-8b6b-ef6994746703}, !- Handle
  6;                                      !- Number of Timesteps per Hour

OS:ShadowCalculation,
  {3ea6bf7f-a76f-470b-a4e6-3d03f2463d41}, !- Handle
  20,                                     !- Calculation Frequency
  200;                                    !- Maximum Figures in Shadow Overlap Calculations

OS:HeatBalanceAlgorithm,
  {c02c523c-6fae-4106-9150-7ad1e1f16a63}, !- Handle
  ConductionTransferFunction,             !- Algorithm
  200;                                    !- Surface Temperature Upper Limit {C}

OS:RunPeriod,
  {248c0483-18d5-465a-b8de-cc8bb4390d24}, !- Handle
  Run Period 1,                           !- Name
  1,                                      !- Begin Month
  1,                                      !- Begin Day of Month
  12,                                     !- End Month
  31,                                     !- End Day of Month
  ,                                       !- Use Weather File Holidays and Special Days
  ,                                       !- Use Weather File Daylight Saving Period
  ,                                       !- Apply Weekend Holiday Rule
  ,                                       !- Use Weather File Rain Indicators
  ,                                       !- Use Weather File Snow Indicators
  ;                                       !- Number of Times Runperiod to be Repeated

OS:LifeCycleCost:Parameters,
  {c8aac9f5-1125-4163-b21b-c1c215a9588b}, !- Handle
  ,                                       !- Analysis Type
  ,                                       !- Discounting Convention
  ,                                       !- Inflation Approach
  ,                                       !- Real Discount Rate
  ,                                       !- Nominal Discount Rate
  ,                                       !- Inflation
  ,                                       !- Base Date Month
  ,                                       !- Base Date Year
  ,                                       !- Service Date Month
  ,                                       !- Service Date Year
  ;                                       !- Length of Study Period in Years

OS:ThermalZone,
  {065031ff-2fe2-4706-aea8-c7f5af8d2cb0}, !- Handle
  living zone,                            !- Name
  ,                                       !- Multiplier
  ,                                       !- Ceiling Height {m}
  ,                                       !- Volume {m3}
  ,                                       !- Floor Area {m2}
  ,                                       !- Zone Inside Convection Algorithm
  ,                                       !- Zone Outside Convection Algorithm
  ,                                       !- Zone Conditioning Equipment List Name
  {ce8606d4-ce19-4c96-bc31-f132da04173c}, !- Zone Air Inlet Port List
  {b2994416-5715-43d6-9f4f-db41a8967e0a}, !- Zone Air Exhaust Port List
  {dd8b0465-4326-4067-94f0-eb1f8d2a03f0}, !- Zone Air Node Name
  {86d78b80-c86b-4101-a338-fce474785a48}, !- Zone Return Air Port List
  ,                                       !- Primary Daylighting Control Name
  ,                                       !- Fraction of Zone Controlled by Primary Daylighting Control
  ,                                       !- Secondary Daylighting Control Name
  ,                                       !- Fraction of Zone Controlled by Secondary Daylighting Control
  ,                                       !- Illuminance Map Name
  ,                                       !- Group Rendering Name
  ,                                       !- Thermostat Name
  No;                                     !- Use Ideal Air Loads

OS:Node,
  {a1273e57-56e6-4e4e-bde4-a314396283d7}, !- Handle
  Node 1,                                 !- Name
  {dd8b0465-4326-4067-94f0-eb1f8d2a03f0}, !- Inlet Port
  ;                                       !- Outlet Port

OS:Connection,
  {dd8b0465-4326-4067-94f0-eb1f8d2a03f0}, !- Handle
  {264ebba0-5232-4635-ab2b-68c3d5ec880c}, !- Name
  {065031ff-2fe2-4706-aea8-c7f5af8d2cb0}, !- Source Object
  11,                                     !- Outlet Port
  {a1273e57-56e6-4e4e-bde4-a314396283d7}, !- Target Object
  2;                                      !- Inlet Port

OS:PortList,
  {ce8606d4-ce19-4c96-bc31-f132da04173c}, !- Handle
  {9aec413f-0e7a-4bc4-943e-787351236a51}, !- Name
  {065031ff-2fe2-4706-aea8-c7f5af8d2cb0}; !- HVAC Component

OS:PortList,
  {b2994416-5715-43d6-9f4f-db41a8967e0a}, !- Handle
  {87a3669e-11c5-4316-91fa-5a0f45639427}, !- Name
  {065031ff-2fe2-4706-aea8-c7f5af8d2cb0}; !- HVAC Component

OS:PortList,
  {86d78b80-c86b-4101-a338-fce474785a48}, !- Handle
  {fde396dc-37d5-48e9-9396-9aec7e77b5ea}, !- Name
  {065031ff-2fe2-4706-aea8-c7f5af8d2cb0}; !- HVAC Component

OS:Sizing:Zone,
  {c2bc84cc-860b-4619-85c3-d846a85935b8}, !- Handle
  {065031ff-2fe2-4706-aea8-c7f5af8d2cb0}, !- Zone or ZoneList Name
  SupplyAirTemperature,                   !- Zone Cooling Design Supply Air Temperature Input Method
  14,                                     !- Zone Cooling Design Supply Air Temperature {C}
  11.11,                                  !- Zone Cooling Design Supply Air Temperature Difference {deltaC}
  SupplyAirTemperature,                   !- Zone Heating Design Supply Air Temperature Input Method
  40,                                     !- Zone Heating Design Supply Air Temperature {C}
  11.11,                                  !- Zone Heating Design Supply Air Temperature Difference {deltaC}
  0.0085,                                 !- Zone Cooling Design Supply Air Humidity Ratio {kg-H2O/kg-air}
  0.008,                                  !- Zone Heating Design Supply Air Humidity Ratio {kg-H2O/kg-air}
  ,                                       !- Zone Heating Sizing Factor
  ,                                       !- Zone Cooling Sizing Factor
  DesignDay,                              !- Cooling Design Air Flow Method
  ,                                       !- Cooling Design Air Flow Rate {m3/s}
  ,                                       !- Cooling Minimum Air Flow per Zone Floor Area {m3/s-m2}
  ,                                       !- Cooling Minimum Air Flow {m3/s}
  ,                                       !- Cooling Minimum Air Flow Fraction
  DesignDay,                              !- Heating Design Air Flow Method
  ,                                       !- Heating Design Air Flow Rate {m3/s}
  ,                                       !- Heating Maximum Air Flow per Zone Floor Area {m3/s-m2}
  ,                                       !- Heating Maximum Air Flow {m3/s}
  ,                                       !- Heating Maximum Air Flow Fraction
  ,                                       !- Design Zone Air Distribution Effectiveness in Cooling Mode
  ,                                       !- Design Zone Air Distribution Effectiveness in Heating Mode
  No,                                     !- Account for Dedicated Outdoor Air System
  NeutralSupplyAir,                       !- Dedicated Outdoor Air System Control Strategy
  autosize,                               !- Dedicated Outdoor Air Low Setpoint Temperature for Design {C}
  autosize;                               !- Dedicated Outdoor Air High Setpoint Temperature for Design {C}

OS:ZoneHVAC:EquipmentList,
  {ebabd845-e898-46a5-b846-a640ee7a80b9}, !- Handle
  Zone HVAC Equipment List 1,             !- Name
  {065031ff-2fe2-4706-aea8-c7f5af8d2cb0}; !- Thermal Zone

OS:ThermalZone,
  {e31f208a-d3b1-4981-8fdf-5a851153e167}, !- Handle
  garage zone,                            !- Name
  ,                                       !- Multiplier
  ,                                       !- Ceiling Height {m}
  ,                                       !- Volume {m3}
  ,                                       !- Floor Area {m2}
  ,                                       !- Zone Inside Convection Algorithm
  ,                                       !- Zone Outside Convection Algorithm
  ,                                       !- Zone Conditioning Equipment List Name
  {b1412796-a4ff-4a1d-8a88-b447d99c0e95}, !- Zone Air Inlet Port List
  {ecb14484-2c21-417f-950f-de0ca0cde5de}, !- Zone Air Exhaust Port List
  {1736e61b-d235-4266-b359-ebd999369d2a}, !- Zone Air Node Name
  {adaf9f1a-d601-4b79-b0cc-9a919153d639}, !- Zone Return Air Port List
  ,                                       !- Primary Daylighting Control Name
  ,                                       !- Fraction of Zone Controlled by Primary Daylighting Control
  ,                                       !- Secondary Daylighting Control Name
  ,                                       !- Fraction of Zone Controlled by Secondary Daylighting Control
  ,                                       !- Illuminance Map Name
  ,                                       !- Group Rendering Name
  ,                                       !- Thermostat Name
  No;                                     !- Use Ideal Air Loads

OS:Node,
  {097e7f0b-195a-4810-ad03-722f0af78d4c}, !- Handle
  Node 2,                                 !- Name
  {1736e61b-d235-4266-b359-ebd999369d2a}, !- Inlet Port
  ;                                       !- Outlet Port

OS:Connection,
  {1736e61b-d235-4266-b359-ebd999369d2a}, !- Handle
  {c5139616-4f17-4269-b3eb-dbf77adc6e74}, !- Name
  {e31f208a-d3b1-4981-8fdf-5a851153e167}, !- Source Object
  11,                                     !- Outlet Port
  {097e7f0b-195a-4810-ad03-722f0af78d4c}, !- Target Object
  2;                                      !- Inlet Port

OS:PortList,
  {b1412796-a4ff-4a1d-8a88-b447d99c0e95}, !- Handle
  {2f35cf6f-3aaa-41a3-9692-7bddd75f9cd3}, !- Name
  {e31f208a-d3b1-4981-8fdf-5a851153e167}; !- HVAC Component

OS:PortList,
  {ecb14484-2c21-417f-950f-de0ca0cde5de}, !- Handle
  {3f7df08c-1e60-40d0-aec2-913580272866}, !- Name
  {e31f208a-d3b1-4981-8fdf-5a851153e167}; !- HVAC Component

OS:PortList,
  {adaf9f1a-d601-4b79-b0cc-9a919153d639}, !- Handle
  {3ce06bae-686b-4cb0-9ed2-61865f49ba9e}, !- Name
  {e31f208a-d3b1-4981-8fdf-5a851153e167}; !- HVAC Component

OS:Sizing:Zone,
  {1cbbde1c-8ab9-4c7d-8baf-5537b9fea9f2}, !- Handle
  {e31f208a-d3b1-4981-8fdf-5a851153e167}, !- Zone or ZoneList Name
  SupplyAirTemperature,                   !- Zone Cooling Design Supply Air Temperature Input Method
  14,                                     !- Zone Cooling Design Supply Air Temperature {C}
  11.11,                                  !- Zone Cooling Design Supply Air Temperature Difference {deltaC}
  SupplyAirTemperature,                   !- Zone Heating Design Supply Air Temperature Input Method
  40,                                     !- Zone Heating Design Supply Air Temperature {C}
  11.11,                                  !- Zone Heating Design Supply Air Temperature Difference {deltaC}
  0.0085,                                 !- Zone Cooling Design Supply Air Humidity Ratio {kg-H2O/kg-air}
  0.008,                                  !- Zone Heating Design Supply Air Humidity Ratio {kg-H2O/kg-air}
  ,                                       !- Zone Heating Sizing Factor
  ,                                       !- Zone Cooling Sizing Factor
  DesignDay,                              !- Cooling Design Air Flow Method
  ,                                       !- Cooling Design Air Flow Rate {m3/s}
  ,                                       !- Cooling Minimum Air Flow per Zone Floor Area {m3/s-m2}
  ,                                       !- Cooling Minimum Air Flow {m3/s}
  ,                                       !- Cooling Minimum Air Flow Fraction
  DesignDay,                              !- Heating Design Air Flow Method
  ,                                       !- Heating Design Air Flow Rate {m3/s}
  ,                                       !- Heating Maximum Air Flow per Zone Floor Area {m3/s-m2}
  ,                                       !- Heating Maximum Air Flow {m3/s}
  ,                                       !- Heating Maximum Air Flow Fraction
  ,                                       !- Design Zone Air Distribution Effectiveness in Cooling Mode
  ,                                       !- Design Zone Air Distribution Effectiveness in Heating Mode
  No,                                     !- Account for Dedicated Outdoor Air System
  NeutralSupplyAir,                       !- Dedicated Outdoor Air System Control Strategy
  autosize,                               !- Dedicated Outdoor Air Low Setpoint Temperature for Design {C}
  autosize;                               !- Dedicated Outdoor Air High Setpoint Temperature for Design {C}

OS:ZoneHVAC:EquipmentList,
  {89e2535e-1684-44a9-9eef-80e3153f20b6}, !- Handle
  Zone HVAC Equipment List 2,             !- Name
  {e31f208a-d3b1-4981-8fdf-5a851153e167}; !- Thermal Zone

OS:Space,
  {4039ee5b-506d-4686-91f8-fad55f3308ed}, !- Handle
  garage space,                           !- Name
  {571efb49-6c25-4a31-bab2-6d0e56879df7}, !- Space Type Name
  ,                                       !- Default Construction Set Name
  ,                                       !- Default Schedule Set Name
  -0,                                     !- Direction of Relative North {deg}
  0,                                      !- X Origin {m}
  0,                                      !- Y Origin {m}
  0,                                      !- Z Origin {m}
  ,                                       !- Building Story Name
  {e31f208a-d3b1-4981-8fdf-5a851153e167}; !- Thermal Zone Name

OS:Surface,
  {ac6bed0f-165b-4e03-91cd-a00d067b890b}, !- Handle
  Surface 1,                              !- Name
  Floor,                                  !- Surface Type
  ,                                       !- Construction Name
  {4039ee5b-506d-4686-91f8-fad55f3308ed}, !- Space Name
  Foundation,                             !- Outside Boundary Condition
  ,                                       !- Outside Boundary Condition Object
  NoSun,                                  !- Sun Exposure
  NoWind,                                 !- Wind Exposure
  ,                                       !- View Factor to Ground
  ,                                       !- Number of Vertices
  5.57695129776527, -3.048, 0,            !- X,Y,Z Vertex 1 {m}
  5.57695129776527, 3.048, 0,             !- X,Y,Z Vertex 2 {m}
  11.6729512977653, 3.048, 0,             !- X,Y,Z Vertex 3 {m}
  11.6729512977653, -3.048, 0;            !- X,Y,Z Vertex 4 {m}

OS:Surface,
  {9c008eac-4069-4529-8d05-e9a110fb47dd}, !- Handle
  Surface 2,                              !- Name
  Wall,                                   !- Surface Type
  ,                                       !- Construction Name
  {4039ee5b-506d-4686-91f8-fad55f3308ed}, !- Space Name
  Surface,                                !- Outside Boundary Condition
  {9e5707cf-7143-4205-a4ce-ae976cbe7cf1}, !- Outside Boundary Condition Object
  NoSun,                                  !- Sun Exposure
  NoWind,                                 !- Wind Exposure
  ,                                       !- View Factor to Ground
  ,                                       !- Number of Vertices
  5.57695129776527, 3.048, 2.4384,        !- X,Y,Z Vertex 1 {m}
  5.57695129776527, 3.048, 0,             !- X,Y,Z Vertex 2 {m}
  5.57695129776527, 0, 0,                 !- X,Y,Z Vertex 3 {m}
  5.57695129776527, 0, 2.4384;            !- X,Y,Z Vertex 4 {m}

OS:Surface,
  {ee83b085-34d6-4de6-927c-ee62a9f85e75}, !- Handle
  Surface 3,                              !- Name
  Wall,                                   !- Surface Type
  ,                                       !- Construction Name
  {4039ee5b-506d-4686-91f8-fad55f3308ed}, !- Space Name
  Surface,                                !- Outside Boundary Condition
  {df058cd4-9d8c-4a8d-ad7a-4ea9e696f33a}, !- Outside Boundary Condition Object
  NoSun,                                  !- Sun Exposure
  NoWind,                                 !- Wind Exposure
  ,                                       !- View Factor to Ground
  ,                                       !- Number of Vertices
  11.6729512977653, 3.048, 2.4384,        !- X,Y,Z Vertex 1 {m}
  11.6729512977653, 3.048, 0,             !- X,Y,Z Vertex 2 {m}
  5.57695129776527, 3.048, 0,             !- X,Y,Z Vertex 3 {m}
  5.57695129776527, 3.048, 2.4384;        !- X,Y,Z Vertex 4 {m}

OS:Surface,
  {285ef03d-170f-4c1c-9623-af39cd9ae25d}, !- Handle
  Surface 4,                              !- Name
  Wall,                                   !- Surface Type
  ,                                       !- Construction Name
  {4039ee5b-506d-4686-91f8-fad55f3308ed}, !- Space Name
  Outdoors,                               !- Outside Boundary Condition
  ,                                       !- Outside Boundary Condition Object
  SunExposed,                             !- Sun Exposure
  WindExposed,                            !- Wind Exposure
  ,                                       !- View Factor to Ground
  ,                                       !- Number of Vertices
  11.6729512977653, -3.048, 2.4384,       !- X,Y,Z Vertex 1 {m}
  11.6729512977653, -3.048, 0,            !- X,Y,Z Vertex 2 {m}
  11.6729512977653, 3.048, 0,             !- X,Y,Z Vertex 3 {m}
  11.6729512977653, 3.048, 2.4384;        !- X,Y,Z Vertex 4 {m}

OS:Surface,
  {2fda59f0-bfe4-4267-bb49-72fdc86ab33f}, !- Handle
  Surface 5,                              !- Name
  Wall,                                   !- Surface Type
  ,                                       !- Construction Name
  {4039ee5b-506d-4686-91f8-fad55f3308ed}, !- Space Name
  Outdoors,                               !- Outside Boundary Condition
  ,                                       !- Outside Boundary Condition Object
  SunExposed,                             !- Sun Exposure
  WindExposed,                            !- Wind Exposure
  ,                                       !- View Factor to Ground
  ,                                       !- Number of Vertices
  5.57695129776527, -3.048, 2.4384,       !- X,Y,Z Vertex 1 {m}
  5.57695129776527, -3.048, 0,            !- X,Y,Z Vertex 2 {m}
  11.6729512977653, -3.048, 0,            !- X,Y,Z Vertex 3 {m}
  11.6729512977653, -3.048, 2.4384;       !- X,Y,Z Vertex 4 {m}

OS:Surface,
  {13add2dc-e698-4d1c-8a11-d7adef6b7f47}, !- Handle
  Surface 6,                              !- Name
  RoofCeiling,                            !- Surface Type
  ,                                       !- Construction Name
  {4039ee5b-506d-4686-91f8-fad55f3308ed}, !- Space Name
  Surface,                                !- Outside Boundary Condition
  {c4eff51b-7ae8-42b3-9b4f-cb549c0eaa93}, !- Outside Boundary Condition Object
  NoSun,                                  !- Sun Exposure
  NoWind,                                 !- Wind Exposure
  ,                                       !- View Factor to Ground
  ,                                       !- Number of Vertices
  11.6729512977653, -3.048, 2.4384,       !- X,Y,Z Vertex 1 {m}
  11.6729512977653, 3.048, 2.4384,        !- X,Y,Z Vertex 2 {m}
  5.57695129776527, 3.048, 2.4384,        !- X,Y,Z Vertex 3 {m}
  5.57695129776527, -3.048, 2.4384;       !- X,Y,Z Vertex 4 {m}

OS:SpaceType,
  {571efb49-6c25-4a31-bab2-6d0e56879df7}, !- Handle
  Space Type 1,                           !- Name
  ,                                       !- Default Construction Set Name
  ,                                       !- Default Schedule Set Name
  ,                                       !- Group Rendering Name
  ,                                       !- Design Specification Outdoor Air Object Name
  ,                                       !- Standards Building Type
  garage;                                 !- Standards Space Type

OS:Space,
  {36e6e7f6-b8ec-4456-875f-b29309bcfd0b}, !- Handle
  living space,                           !- Name
  {a409790b-a4da-4bd4-a86d-3e682e2a71c1}, !- Space Type Name
  ,                                       !- Default Construction Set Name
  ,                                       !- Default Schedule Set Name
  -0,                                     !- Direction of Relative North {deg}
  0,                                      !- X Origin {m}
  0,                                      !- Y Origin {m}
  0,                                      !- Z Origin {m}
  ,                                       !- Building Story Name
  {065031ff-2fe2-4706-aea8-c7f5af8d2cb0}, !- Thermal Zone Name
  ,                                       !- Part of Total Floor Area
  ,                                       !- Design Specification Outdoor Air Object Name
  {d074feab-e8c5-48e6-b03f-fd51da633532}; !- Building Unit Name

OS:Surface,
  {70e6ec28-9576-4d14-ae1b-08b77056e6f2}, !- Handle
  Surface 7,                              !- Name
  Floor,                                  !- Surface Type
  ,                                       !- Construction Name
  {36e6e7f6-b8ec-4456-875f-b29309bcfd0b}, !- Space Name
  Surface,                                !- Outside Boundary Condition
  {713e596f-a69f-4ca8-8d38-2a9769326dc1}, !- Outside Boundary Condition Object
  NoSun,                                  !- Sun Exposure
  NoWind,                                 !- Wind Exposure
  ,                                       !- View Factor to Ground
  ,                                       !- Number of Vertices
  0, 0, 0,                                !- X,Y,Z Vertex 1 {m}
  0, 5.83647564888264, 0,                 !- X,Y,Z Vertex 2 {m}
  11.6729512977653, 5.83647564888264, 0,  !- X,Y,Z Vertex 3 {m}
  11.6729512977653, 3.048, 0,             !- X,Y,Z Vertex 4 {m}
  5.57695129776527, 3.048, 0,             !- X,Y,Z Vertex 5 {m}
  5.57695129776527, 0, 0;                 !- X,Y,Z Vertex 6 {m}

OS:Surface,
  {fe579bfd-a443-40a8-84c7-066664993596}, !- Handle
  Surface 8,                              !- Name
  Wall,                                   !- Surface Type
  ,                                       !- Construction Name
  {36e6e7f6-b8ec-4456-875f-b29309bcfd0b}, !- Space Name
  Outdoors,                               !- Outside Boundary Condition
  ,                                       !- Outside Boundary Condition Object
  SunExposed,                             !- Sun Exposure
  WindExposed,                            !- Wind Exposure
  ,                                       !- View Factor to Ground
  ,                                       !- Number of Vertices
  0, 5.83647564888264, 2.4384,            !- X,Y,Z Vertex 1 {m}
  0, 5.83647564888264, 0,                 !- X,Y,Z Vertex 2 {m}
  0, 0, 0,                                !- X,Y,Z Vertex 3 {m}
  0, 0, 2.4384;                           !- X,Y,Z Vertex 4 {m}

OS:Surface,
  {15a8b4d3-6b83-4950-ac26-a3f9f45e59de}, !- Handle
  Surface 9,                              !- Name
  Wall,                                   !- Surface Type
  ,                                       !- Construction Name
  {36e6e7f6-b8ec-4456-875f-b29309bcfd0b}, !- Space Name
  Outdoors,                               !- Outside Boundary Condition
  ,                                       !- Outside Boundary Condition Object
  SunExposed,                             !- Sun Exposure
  WindExposed,                            !- Wind Exposure
  ,                                       !- View Factor to Ground
  ,                                       !- Number of Vertices
  11.6729512977653, 5.83647564888264, 2.4384, !- X,Y,Z Vertex 1 {m}
  11.6729512977653, 5.83647564888264, 0,  !- X,Y,Z Vertex 2 {m}
  0, 5.83647564888264, 0,                 !- X,Y,Z Vertex 3 {m}
  0, 5.83647564888264, 2.4384;            !- X,Y,Z Vertex 4 {m}

OS:Surface,
  {4cf7f6ed-3bc7-4d9d-ad35-7c403207f3b8}, !- Handle
  Surface 10,                             !- Name
  Wall,                                   !- Surface Type
  ,                                       !- Construction Name
  {36e6e7f6-b8ec-4456-875f-b29309bcfd0b}, !- Space Name
  Outdoors,                               !- Outside Boundary Condition
  ,                                       !- Outside Boundary Condition Object
  SunExposed,                             !- Sun Exposure
  WindExposed,                            !- Wind Exposure
  ,                                       !- View Factor to Ground
  ,                                       !- Number of Vertices
  11.6729512977653, 3.048, 2.4384,        !- X,Y,Z Vertex 1 {m}
  11.6729512977653, 3.048, 0,             !- X,Y,Z Vertex 2 {m}
  11.6729512977653, 5.83647564888264, 0,  !- X,Y,Z Vertex 3 {m}
  11.6729512977653, 5.83647564888264, 2.4384; !- X,Y,Z Vertex 4 {m}

OS:Surface,
  {df058cd4-9d8c-4a8d-ad7a-4ea9e696f33a}, !- Handle
  Surface 11,                             !- Name
  Wall,                                   !- Surface Type
  ,                                       !- Construction Name
  {36e6e7f6-b8ec-4456-875f-b29309bcfd0b}, !- Space Name
  Surface,                                !- Outside Boundary Condition
  {ee83b085-34d6-4de6-927c-ee62a9f85e75}, !- Outside Boundary Condition Object
  NoSun,                                  !- Sun Exposure
  NoWind,                                 !- Wind Exposure
  ,                                       !- View Factor to Ground
  ,                                       !- Number of Vertices
  5.57695129776527, 3.048, 2.4384,        !- X,Y,Z Vertex 1 {m}
  5.57695129776527, 3.048, 0,             !- X,Y,Z Vertex 2 {m}
  11.6729512977653, 3.048, 0,             !- X,Y,Z Vertex 3 {m}
  11.6729512977653, 3.048, 2.4384;        !- X,Y,Z Vertex 4 {m}

OS:Surface,
  {9e5707cf-7143-4205-a4ce-ae976cbe7cf1}, !- Handle
  Surface 12,                             !- Name
  Wall,                                   !- Surface Type
  ,                                       !- Construction Name
  {36e6e7f6-b8ec-4456-875f-b29309bcfd0b}, !- Space Name
  Surface,                                !- Outside Boundary Condition
  {9c008eac-4069-4529-8d05-e9a110fb47dd}, !- Outside Boundary Condition Object
  NoSun,                                  !- Sun Exposure
  NoWind,                                 !- Wind Exposure
  ,                                       !- View Factor to Ground
  ,                                       !- Number of Vertices
  5.57695129776527, 0, 2.4384,            !- X,Y,Z Vertex 1 {m}
  5.57695129776527, 0, 0,                 !- X,Y,Z Vertex 2 {m}
  5.57695129776527, 3.048, 0,             !- X,Y,Z Vertex 3 {m}
  5.57695129776527, 3.048, 2.4384;        !- X,Y,Z Vertex 4 {m}

OS:Surface,
  {09c685ac-2fb5-48f6-a99d-e83a0a01a982}, !- Handle
  Surface 13,                             !- Name
  Wall,                                   !- Surface Type
  ,                                       !- Construction Name
  {36e6e7f6-b8ec-4456-875f-b29309bcfd0b}, !- Space Name
  Outdoors,                               !- Outside Boundary Condition
  ,                                       !- Outside Boundary Condition Object
  SunExposed,                             !- Sun Exposure
  WindExposed,                            !- Wind Exposure
  ,                                       !- View Factor to Ground
  ,                                       !- Number of Vertices
  0, 0, 2.4384,                           !- X,Y,Z Vertex 1 {m}
  0, 0, 0,                                !- X,Y,Z Vertex 2 {m}
  5.57695129776527, 0, 0,                 !- X,Y,Z Vertex 3 {m}
  5.57695129776527, 0, 2.4384;            !- X,Y,Z Vertex 4 {m}

OS:Surface,
  {db7097dd-0d93-42c2-9990-7c14813df3e0}, !- Handle
  Surface 14,                             !- Name
  RoofCeiling,                            !- Surface Type
  ,                                       !- Construction Name
  {36e6e7f6-b8ec-4456-875f-b29309bcfd0b}, !- Space Name
  Surface,                                !- Outside Boundary Condition