!- NOTE: Auto-generated from /test/osw_files/SFD_2000sqft_2story_FB_GRG_UA_3Beds_2Baths_Denver_OilWHTank.osw

OS:Version,
  {e76a710c-4afc-4879-a911-c2afc709d0e4}, !- Handle
  2.6.1;                                  !- Version Identifier

OS:Building,
  {f62e14ee-37fd-4338-8b3d-819626f3b2b4}, !- Handle
  Building 1,                             !- Name
  ,                                       !- Building Sector Type
  0,                                      !- North Axis {deg}
  ,                                       !- Nominal Floor to Floor Height {m}
  ,                                       !- Space Type Name
  ,                                       !- Default Construction Set Name
  ,                                       !- Default Schedule Set Name
  3,                                      !- Standards Number of Stories
  2,                                      !- Standards Number of Above Ground Stories
  singlefamilydetached,                   !- Standards Building Type
  1;                                      !- Standards Number of Living Units

OS:Facility,
  {af9a725f-9aa1-47c5-a079-e2362ebcb74c}; !- Handle

OS:Site,
  {2ceb8561-b43e-4059-b977-aedb86d761e8}, !- Handle
  Denver Intl Ap_CO_USA,                  !- Name
  39.83,                                  !- Latitude {deg}
  -104.65,                                !- Longitude {deg}
  -7,                                     !- Time Zone {hr}
  1650,                                   !- Elevation {m}
  ;                                       !- Terrain

OS:SimulationControl,
  {49f5fbd9-9448-4cce-8047-d2311e877eae}, !- Handle
  ,                                       !- Do Zone Sizing Calculation
  ,                                       !- Do System Sizing Calculation
  ,                                       !- Do Plant Sizing Calculation
  No;                                     !- Run Simulation for Sizing Periods

OS:Sizing:Parameters,
  {34d8b3de-5985-4b24-a464-373cfe7e68c0}, !- Handle
  1.25,                                   !- Heating Sizing Factor
  1.15;                                   !- Cooling Sizing Factor

OS:Timestep,
  {95dc6069-b52f-44a0-973f-07fb2f54a463}, !- Handle
  6;                                      !- Number of Timesteps per Hour

OS:ShadowCalculation,
  {259e316a-ae67-42c6-bd38-1aaa05529491}, !- Handle
  20,                                     !- Calculation Frequency
  200;                                    !- Maximum Figures in Shadow Overlap Calculations

OS:HeatBalanceAlgorithm,
  {babe08f3-a6b6-4be8-9694-e4c79f4a9ede}, !- Handle
  ConductionTransferFunction,             !- Algorithm
  200;                                    !- Surface Temperature Upper Limit {C}

OS:RunPeriod,
  {9ec89ea1-8ab3-465f-a068-bd2c5b6d33d1}, !- Handle
  Run Period 1,                           !- Name
  1,                                      !- Begin Month
  1,                                      !- Begin Day of Month
  12,                                     !- End Month
  31,                                     !- End Day of Month
  ,                                       !- Use Weather File Holidays and Special Days
  ,                                       !- Use Weather File Daylight Saving Period
  ,                                       !- Apply Weekend Holiday Rule
  ,                                       !- Use Weather File Rain Indicators
  ,                                       !- Use Weather File Snow Indicators
  ;                                       !- Number of Times Runperiod to be Repeated

OS:LifeCycleCost:Parameters,
  {41bccfd1-dae0-476d-8965-125810648189}, !- Handle
  ,                                       !- Analysis Type
  ,                                       !- Discounting Convention
  ,                                       !- Inflation Approach
  ,                                       !- Real Discount Rate
  ,                                       !- Nominal Discount Rate
  ,                                       !- Inflation
  ,                                       !- Base Date Month
  ,                                       !- Base Date Year
  ,                                       !- Service Date Month
  ,                                       !- Service Date Year
  ;                                       !- Length of Study Period in Years

OS:ThermalZone,
  {e8466c9d-c18b-466f-bbac-efe8bf470b9d}, !- Handle
  living zone,                            !- Name
  ,                                       !- Multiplier
  ,                                       !- Ceiling Height {m}
  ,                                       !- Volume {m3}
  ,                                       !- Floor Area {m2}
  ,                                       !- Zone Inside Convection Algorithm
  ,                                       !- Zone Outside Convection Algorithm
  ,                                       !- Zone Conditioning Equipment List Name
  {461c606d-b49c-48d8-bfb1-f1f052073b7c}, !- Zone Air Inlet Port List
  {4366caa0-dc19-477a-a456-61aa928c1dd7}, !- Zone Air Exhaust Port List
  {fa59107c-e663-4f5b-bd7a-e5882b30c805}, !- Zone Air Node Name
  {72077b90-4c63-4341-ac69-d4823ec3bb94}, !- Zone Return Air Port List
  ,                                       !- Primary Daylighting Control Name
  ,                                       !- Fraction of Zone Controlled by Primary Daylighting Control
  ,                                       !- Secondary Daylighting Control Name
  ,                                       !- Fraction of Zone Controlled by Secondary Daylighting Control
  ,                                       !- Illuminance Map Name
  ,                                       !- Group Rendering Name
  ,                                       !- Thermostat Name
  No;                                     !- Use Ideal Air Loads

OS:Node,
  {697015b3-f933-454c-8d4b-694799318ca3}, !- Handle
  Node 1,                                 !- Name
  {fa59107c-e663-4f5b-bd7a-e5882b30c805}, !- Inlet Port
  ;                                       !- Outlet Port

OS:Connection,
  {fa59107c-e663-4f5b-bd7a-e5882b30c805}, !- Handle
  {dfeb269c-89d1-42fd-a769-af62011103f2}, !- Name
  {e8466c9d-c18b-466f-bbac-efe8bf470b9d}, !- Source Object
  11,                                     !- Outlet Port
  {697015b3-f933-454c-8d4b-694799318ca3}, !- Target Object
  2;                                      !- Inlet Port

OS:PortList,
  {461c606d-b49c-48d8-bfb1-f1f052073b7c}, !- Handle
  {dbf5aab0-85a1-4e43-9d4c-d6b976b47267}, !- Name
  {e8466c9d-c18b-466f-bbac-efe8bf470b9d}; !- HVAC Component

OS:PortList,
  {4366caa0-dc19-477a-a456-61aa928c1dd7}, !- Handle
  {0804d787-136e-48fc-bbc8-1bef53f2c3a6}, !- Name
  {e8466c9d-c18b-466f-bbac-efe8bf470b9d}; !- HVAC Component

OS:PortList,
  {72077b90-4c63-4341-ac69-d4823ec3bb94}, !- Handle
  {8f0aa989-ea12-4dcc-b0bf-1c3b03ec68e5}, !- Name
  {e8466c9d-c18b-466f-bbac-efe8bf470b9d}; !- HVAC Component

OS:Sizing:Zone,
  {1c9171e7-e93b-429b-a8af-2a3d240fad6e}, !- Handle
  {e8466c9d-c18b-466f-bbac-efe8bf470b9d}, !- Zone or ZoneList Name
  SupplyAirTemperature,                   !- Zone Cooling Design Supply Air Temperature Input Method
  14,                                     !- Zone Cooling Design Supply Air Temperature {C}
  11.11,                                  !- Zone Cooling Design Supply Air Temperature Difference {deltaC}
  SupplyAirTemperature,                   !- Zone Heating Design Supply Air Temperature Input Method
  40,                                     !- Zone Heating Design Supply Air Temperature {C}
  11.11,                                  !- Zone Heating Design Supply Air Temperature Difference {deltaC}
  0.0085,                                 !- Zone Cooling Design Supply Air Humidity Ratio {kg-H2O/kg-air}
  0.008,                                  !- Zone Heating Design Supply Air Humidity Ratio {kg-H2O/kg-air}
  ,                                       !- Zone Heating Sizing Factor
  ,                                       !- Zone Cooling Sizing Factor
  DesignDay,                              !- Cooling Design Air Flow Method
  ,                                       !- Cooling Design Air Flow Rate {m3/s}
  ,                                       !- Cooling Minimum Air Flow per Zone Floor Area {m3/s-m2}
  ,                                       !- Cooling Minimum Air Flow {m3/s}
  ,                                       !- Cooling Minimum Air Flow Fraction
  DesignDay,                              !- Heating Design Air Flow Method
  ,                                       !- Heating Design Air Flow Rate {m3/s}
  ,                                       !- Heating Maximum Air Flow per Zone Floor Area {m3/s-m2}
  ,                                       !- Heating Maximum Air Flow {m3/s}
  ,                                       !- Heating Maximum Air Flow Fraction
  ,                                       !- Design Zone Air Distribution Effectiveness in Cooling Mode
  ,                                       !- Design Zone Air Distribution Effectiveness in Heating Mode
  No,                                     !- Account for Dedicated Outdoor Air System
  NeutralSupplyAir,                       !- Dedicated Outdoor Air System Control Strategy
  autosize,                               !- Dedicated Outdoor Air Low Setpoint Temperature for Design {C}
  autosize;                               !- Dedicated Outdoor Air High Setpoint Temperature for Design {C}

OS:ZoneHVAC:EquipmentList,
  {1a028907-ba09-4f53-98d8-53b95d349361}, !- Handle
  Zone HVAC Equipment List 1,             !- Name
  {e8466c9d-c18b-466f-bbac-efe8bf470b9d}; !- Thermal Zone

OS:ThermalZone,
  {91b5ffa8-0749-4e9f-936c-a49a2e6fcd46}, !- Handle
  garage zone,                            !- Name
  ,                                       !- Multiplier
  ,                                       !- Ceiling Height {m}
  ,                                       !- Volume {m3}
  ,                                       !- Floor Area {m2}
  ,                                       !- Zone Inside Convection Algorithm
  ,                                       !- Zone Outside Convection Algorithm
  ,                                       !- Zone Conditioning Equipment List Name
  {1e544b1d-4ec0-40e6-b822-2d7fd38055a4}, !- Zone Air Inlet Port List
  {19154387-4dc0-4135-950f-fbdd2dc97627}, !- Zone Air Exhaust Port List
  {832d8e80-f71e-43de-b57b-3f97c80a19f5}, !- Zone Air Node Name
  {e24b7aa8-0143-4037-921a-56ca2c13b98a}, !- Zone Return Air Port List
  ,                                       !- Primary Daylighting Control Name
  ,                                       !- Fraction of Zone Controlled by Primary Daylighting Control
  ,                                       !- Secondary Daylighting Control Name
  ,                                       !- Fraction of Zone Controlled by Secondary Daylighting Control
  ,                                       !- Illuminance Map Name
  ,                                       !- Group Rendering Name
  ,                                       !- Thermostat Name
  No;                                     !- Use Ideal Air Loads

OS:Node,
  {951b6597-4237-49b1-952c-19c2d8412cc2}, !- Handle
  Node 2,                                 !- Name
  {832d8e80-f71e-43de-b57b-3f97c80a19f5}, !- Inlet Port
  ;                                       !- Outlet Port

OS:Connection,
  {832d8e80-f71e-43de-b57b-3f97c80a19f5}, !- Handle
  {0c314300-39f4-4ccc-ae88-2b9c58fd6557}, !- Name
  {91b5ffa8-0749-4e9f-936c-a49a2e6fcd46}, !- Source Object
  11,                                     !- Outlet Port
  {951b6597-4237-49b1-952c-19c2d8412cc2}, !- Target Object
  2;                                      !- Inlet Port

OS:PortList,
  {1e544b1d-4ec0-40e6-b822-2d7fd38055a4}, !- Handle
  {5e9fa4fc-8d17-4137-99cb-9ed433c3efa6}, !- Name
  {91b5ffa8-0749-4e9f-936c-a49a2e6fcd46}; !- HVAC Component

OS:PortList,
  {19154387-4dc0-4135-950f-fbdd2dc97627}, !- Handle
  {db080fe8-6346-44fc-91cf-4e3ac3fd1018}, !- Name
  {91b5ffa8-0749-4e9f-936c-a49a2e6fcd46}; !- HVAC Component

OS:PortList,
  {e24b7aa8-0143-4037-921a-56ca2c13b98a}, !- Handle
  {6393f875-eaac-4932-951c-fec95b12e075}, !- Name
  {91b5ffa8-0749-4e9f-936c-a49a2e6fcd46}; !- HVAC Component

OS:Sizing:Zone,
  {629d0763-ce25-48a9-a185-86788b65a768}, !- Handle
  {91b5ffa8-0749-4e9f-936c-a49a2e6fcd46}, !- Zone or ZoneList Name
  SupplyAirTemperature,                   !- Zone Cooling Design Supply Air Temperature Input Method
  14,                                     !- Zone Cooling Design Supply Air Temperature {C}
  11.11,                                  !- Zone Cooling Design Supply Air Temperature Difference {deltaC}
  SupplyAirTemperature,                   !- Zone Heating Design Supply Air Temperature Input Method
  40,                                     !- Zone Heating Design Supply Air Temperature {C}
  11.11,                                  !- Zone Heating Design Supply Air Temperature Difference {deltaC}
  0.0085,                                 !- Zone Cooling Design Supply Air Humidity Ratio {kg-H2O/kg-air}
  0.008,                                  !- Zone Heating Design Supply Air Humidity Ratio {kg-H2O/kg-air}
  ,                                       !- Zone Heating Sizing Factor
  ,                                       !- Zone Cooling Sizing Factor
  DesignDay,                              !- Cooling Design Air Flow Method
  ,                                       !- Cooling Design Air Flow Rate {m3/s}
  ,                                       !- Cooling Minimum Air Flow per Zone Floor Area {m3/s-m2}
  ,                                       !- Cooling Minimum Air Flow {m3/s}
  ,                                       !- Cooling Minimum Air Flow Fraction
  DesignDay,                              !- Heating Design Air Flow Method
  ,                                       !- Heating Design Air Flow Rate {m3/s}
  ,                                       !- Heating Maximum Air Flow per Zone Floor Area {m3/s-m2}
  ,                                       !- Heating Maximum Air Flow {m3/s}
  ,                                       !- Heating Maximum Air Flow Fraction
  ,                                       !- Design Zone Air Distribution Effectiveness in Cooling Mode
  ,                                       !- Design Zone Air Distribution Effectiveness in Heating Mode
  No,                                     !- Account for Dedicated Outdoor Air System
  NeutralSupplyAir,                       !- Dedicated Outdoor Air System Control Strategy
  autosize,                               !- Dedicated Outdoor Air Low Setpoint Temperature for Design {C}
  autosize;                               !- Dedicated Outdoor Air High Setpoint Temperature for Design {C}

OS:ZoneHVAC:EquipmentList,
  {a01695a3-0207-4173-a1ab-fcae67cbf5db}, !- Handle
  Zone HVAC Equipment List 2,             !- Name
  {91b5ffa8-0749-4e9f-936c-a49a2e6fcd46}; !- Thermal Zone

OS:Space,
  {314a053a-c3c9-42ff-b329-6d00669511dc}, !- Handle
  garage space,                           !- Name
  {fcbfe9a7-d8b5-495c-985c-b77417643da4}, !- Space Type Name
  ,                                       !- Default Construction Set Name
  ,                                       !- Default Schedule Set Name
  -0,                                     !- Direction of Relative North {deg}
  0,                                      !- X Origin {m}
  0,                                      !- Y Origin {m}
  0,                                      !- Z Origin {m}
  ,                                       !- Building Story Name
  {91b5ffa8-0749-4e9f-936c-a49a2e6fcd46}; !- Thermal Zone Name

OS:Surface,
  {12c91eea-2066-4cb4-baaa-f69ff6fa2e87}, !- Handle
  Surface 1,                              !- Name
  Floor,                                  !- Surface Type
  ,                                       !- Construction Name
  {314a053a-c3c9-42ff-b329-6d00669511dc}, !- Space Name
  Foundation,                             !- Outside Boundary Condition
  ,                                       !- Outside Boundary Condition Object
  NoSun,                                  !- Sun Exposure
  NoWind,                                 !- Wind Exposure
  ,                                       !- View Factor to Ground
  ,                                       !- Number of Vertices
  5.57695129776527, -3.048, 0,            !- X,Y,Z Vertex 1 {m}
  5.57695129776527, 3.048, 0,             !- X,Y,Z Vertex 2 {m}
  11.6729512977653, 3.048, 0,             !- X,Y,Z Vertex 3 {m}
  11.6729512977653, -3.048, 0;            !- X,Y,Z Vertex 4 {m}

OS:Surface,
  {59255e99-c082-4211-9ff7-324b00fae65d}, !- Handle
  Surface 2,                              !- Name
  Wall,                                   !- Surface Type
  ,                                       !- Construction Name
  {314a053a-c3c9-42ff-b329-6d00669511dc}, !- Space Name
  Surface,                                !- Outside Boundary Condition
  {b97fb2bb-ecc2-41fa-adcd-5a726ff66313}, !- Outside Boundary Condition Object
  NoSun,                                  !- Sun Exposure
  NoWind,                                 !- Wind Exposure
  ,                                       !- View Factor to Ground
  ,                                       !- Number of Vertices
  5.57695129776527, 3.048, 2.4384,        !- X,Y,Z Vertex 1 {m}
  5.57695129776527, 3.048, 0,             !- X,Y,Z Vertex 2 {m}
  5.57695129776527, 0, 0,                 !- X,Y,Z Vertex 3 {m}
  5.57695129776527, 0, 2.4384;            !- X,Y,Z Vertex 4 {m}

OS:Surface,
  {c998ee9a-2008-4d91-a3ae-5742ea271ed9}, !- Handle
  Surface 3,                              !- Name
  Wall,                                   !- Surface Type
  ,                                       !- Construction Name
  {314a053a-c3c9-42ff-b329-6d00669511dc}, !- Space Name
  Surface,                                !- Outside Boundary Condition
  {e28a604c-244d-455e-98df-84d52213c010}, !- Outside Boundary Condition Object
  NoSun,                                  !- Sun Exposure
  NoWind,                                 !- Wind Exposure
  ,                                       !- View Factor to Ground
  ,                                       !- Number of Vertices
  11.6729512977653, 3.048, 2.4384,        !- X,Y,Z Vertex 1 {m}
  11.6729512977653, 3.048, 0,             !- X,Y,Z Vertex 2 {m}
  5.57695129776527, 3.048, 0,             !- X,Y,Z Vertex 3 {m}
  5.57695129776527, 3.048, 2.4384;        !- X,Y,Z Vertex 4 {m}

OS:Surface,
  {7b5129d3-b98d-41f9-99c5-cdcb0a221c9b}, !- Handle
  Surface 4,                              !- Name
  Wall,                                   !- Surface Type
  ,                                       !- Construction Name
  {314a053a-c3c9-42ff-b329-6d00669511dc}, !- Space Name
  Outdoors,                               !- Outside Boundary Condition
  ,                                       !- Outside Boundary Condition Object
  SunExposed,                             !- Sun Exposure
  WindExposed,                            !- Wind Exposure
  ,                                       !- View Factor to Ground
  ,                                       !- Number of Vertices
  11.6729512977653, -3.048, 2.4384,       !- X,Y,Z Vertex 1 {m}
  11.6729512977653, -3.048, 0,            !- X,Y,Z Vertex 2 {m}
  11.6729512977653, 3.048, 0,             !- X,Y,Z Vertex 3 {m}
  11.6729512977653, 3.048, 2.4384;        !- X,Y,Z Vertex 4 {m}

OS:Surface,
  {7699ee60-16a9-449c-bc9e-e5bb2127aee4}, !- Handle
  Surface 5,                              !- Name
  Wall,                                   !- Surface Type
  ,                                       !- Construction Name
  {314a053a-c3c9-42ff-b329-6d00669511dc}, !- Space Name
  Outdoors,                               !- Outside Boundary Condition
  ,                                       !- Outside Boundary Condition Object
  SunExposed,                             !- Sun Exposure
  WindExposed,                            !- Wind Exposure
  ,                                       !- View Factor to Ground
  ,                                       !- Number of Vertices
  5.57695129776527, -3.048, 2.4384,       !- X,Y,Z Vertex 1 {m}
  5.57695129776527, -3.048, 0,            !- X,Y,Z Vertex 2 {m}
  11.6729512977653, -3.048, 0,            !- X,Y,Z Vertex 3 {m}
  11.6729512977653, -3.048, 2.4384;       !- X,Y,Z Vertex 4 {m}

OS:Surface,
  {f25d4624-d07d-4783-b476-c48398b2c558}, !- Handle
  Surface 6,                              !- Name
  RoofCeiling,                            !- Surface Type
  ,                                       !- Construction Name
  {314a053a-c3c9-42ff-b329-6d00669511dc}, !- Space Name
  Surface,                                !- Outside Boundary Condition
  {01d5b254-8e3d-40d2-b39f-0d0fe9ec143f}, !- Outside Boundary Condition Object
  NoSun,                                  !- Sun Exposure
  NoWind,                                 !- Wind Exposure
  ,                                       !- View Factor to Ground
  ,                                       !- Number of Vertices
  11.6729512977653, -3.048, 2.4384,       !- X,Y,Z Vertex 1 {m}
  11.6729512977653, 3.048, 2.4384,        !- X,Y,Z Vertex 2 {m}
  5.57695129776527, 3.048, 2.4384,        !- X,Y,Z Vertex 3 {m}
  5.57695129776527, -3.048, 2.4384;       !- X,Y,Z Vertex 4 {m}

OS:SpaceType,
  {fcbfe9a7-d8b5-495c-985c-b77417643da4}, !- Handle
  Space Type 1,                           !- Name
  ,                                       !- Default Construction Set Name
  ,                                       !- Default Schedule Set Name
  ,                                       !- Group Rendering Name
  ,                                       !- Design Specification Outdoor Air Object Name
  ,                                       !- Standards Building Type
  garage;                                 !- Standards Space Type

OS:Space,
  {7630ed53-8b49-4e48-99e4-d5c062badbe9}, !- Handle
  living space,                           !- Name
  {19913f98-2109-4e36-97ff-d656b3769302}, !- Space Type Name
  ,                                       !- Default Construction Set Name
  ,                                       !- Default Schedule Set Name
  -0,                                     !- Direction of Relative North {deg}
  0,                                      !- X Origin {m}
  0,                                      !- Y Origin {m}
  0,                                      !- Z Origin {m}
  ,                                       !- Building Story Name
  {e8466c9d-c18b-466f-bbac-efe8bf470b9d}, !- Thermal Zone Name
  ,                                       !- Part of Total Floor Area
  ,                                       !- Design Specification Outdoor Air Object Name
  {30fa28e4-bfb9-4ac2-94bb-fd303197d086}; !- Building Unit Name

OS:Surface,
  {29e5a961-bfef-494c-83e3-8b13ba2e79c2}, !- Handle
  Surface 7,                              !- Name
  Floor,                                  !- Surface Type
  ,                                       !- Construction Name
  {7630ed53-8b49-4e48-99e4-d5c062badbe9}, !- Space Name
  Surface,                                !- Outside Boundary Condition
  {e7d1c735-6ca8-4e93-8e38-5ed9dfef9a8d}, !- Outside Boundary Condition Object
  NoSun,                                  !- Sun Exposure
  NoWind,                                 !- Wind Exposure
  ,                                       !- View Factor to Ground
  ,                                       !- Number of Vertices
  0, 0, 0,                                !- X,Y,Z Vertex 1 {m}
  0, 5.83647564888264, 0,                 !- X,Y,Z Vertex 2 {m}
  11.6729512977653, 5.83647564888264, 0,  !- X,Y,Z Vertex 3 {m}
  11.6729512977653, 3.048, 0,             !- X,Y,Z Vertex 4 {m}
  5.57695129776527, 3.048, 0,             !- X,Y,Z Vertex 5 {m}
  5.57695129776527, 0, 0;                 !- X,Y,Z Vertex 6 {m}

OS:Surface,
  {4884b1b7-e1fc-41d2-9014-9a33b5da5aca}, !- Handle
  Surface 8,                              !- Name
  Wall,                                   !- Surface Type
  ,                                       !- Construction Name
  {7630ed53-8b49-4e48-99e4-d5c062badbe9}, !- Space Name
  Outdoors,                               !- Outside Boundary Condition
  ,                                       !- Outside Boundary Condition Object
  SunExposed,                             !- Sun Exposure
  WindExposed,                            !- Wind Exposure
  ,                                       !- View Factor to Ground
  ,                                       !- Number of Vertices
  0, 5.83647564888264, 2.4384,            !- X,Y,Z Vertex 1 {m}
  0, 5.83647564888264, 0,                 !- X,Y,Z Vertex 2 {m}
  0, 0, 0,                                !- X,Y,Z Vertex 3 {m}
  0, 0, 2.4384;                           !- X,Y,Z Vertex 4 {m}

OS:Surface,
  {25731826-ea4d-4983-8138-54046a066164}, !- Handle
  Surface 9,                              !- Name
  Wall,                                   !- Surface Type
  ,                                       !- Construction Name
  {7630ed53-8b49-4e48-99e4-d5c062badbe9}, !- Space Name
  Outdoors,                               !- Outside Boundary Condition
  ,                                       !- Outside Boundary Condition Object
  SunExposed,                             !- Sun Exposure
  WindExposed,                            !- Wind Exposure
  ,                                       !- View Factor to Ground
  ,                                       !- Number of Vertices
  11.6729512977653, 5.83647564888264, 2.4384, !- X,Y,Z Vertex 1 {m}
  11.6729512977653, 5.83647564888264, 0,  !- X,Y,Z Vertex 2 {m}
  0, 5.83647564888264, 0,                 !- X,Y,Z Vertex 3 {m}
  0, 5.83647564888264, 2.4384;            !- X,Y,Z Vertex 4 {m}

OS:Surface,
  {f0baec79-6fcc-4acc-8b53-e4cc23ee80a7}, !- Handle
  Surface 10,                             !- Name
  Wall,                                   !- Surface Type
  ,                                       !- Construction Name
  {7630ed53-8b49-4e48-99e4-d5c062badbe9}, !- Space Name
  Outdoors,                               !- Outside Boundary Condition
  ,                                       !- Outside Boundary Condition Object
  SunExposed,                             !- Sun Exposure
  WindExposed,                            !- Wind Exposure
  ,                                       !- View Factor to Ground
  ,                                       !- Number of Vertices
  11.6729512977653, 3.048, 2.4384,        !- X,Y,Z Vertex 1 {m}
  11.6729512977653, 3.048, 0,             !- X,Y,Z Vertex 2 {m}
  11.6729512977653, 5.83647564888264, 0,  !- X,Y,Z Vertex 3 {m}
  11.6729512977653, 5.83647564888264, 2.4384; !- X,Y,Z Vertex 4 {m}

OS:Surface,
  {e28a604c-244d-455e-98df-84d52213c010}, !- Handle
  Surface 11,                             !- Name
  Wall,                                   !- Surface Type
  ,                                       !- Construction Name
  {7630ed53-8b49-4e48-99e4-d5c062badbe9}, !- Space Name
  Surface,                                !- Outside Boundary Condition
  {c998ee9a-2008-4d91-a3ae-5742ea271ed9}, !- Outside Boundary Condition Object
  NoSun,                                  !- Sun Exposure
  NoWind,                                 !- Wind Exposure
  ,                                       !- View Factor to Ground
  ,                                       !- Number of Vertices
  5.57695129776527, 3.048, 2.4384,        !- X,Y,Z Vertex 1 {m}
  5.57695129776527, 3.048, 0,             !- X,Y,Z Vertex 2 {m}
  11.6729512977653, 3.048, 0,             !- X,Y,Z Vertex 3 {m}
  11.6729512977653, 3.048, 2.4384;        !- X,Y,Z Vertex 4 {m}

OS:Surface,
  {b97fb2bb-ecc2-41fa-adcd-5a726ff66313}, !- Handle
  Surface 12,                             !- Name
  Wall,                                   !- Surface Type
  ,                                       !- Construction Name
  {7630ed53-8b49-4e48-99e4-d5c062badbe9}, !- Space Name
  Surface,                                !- Outside Boundary Condition
  {59255e99-c082-4211-9ff7-324b00fae65d}, !- Outside Boundary Condition Object
  NoSun,                                  !- Sun Exposure
  NoWind,                                 !- Wind Exposure
  ,                                       !- View Factor to Ground
  ,                                       !- Number of Vertices
  5.57695129776527, 0, 2.4384,            !- X,Y,Z Vertex 1 {m}
  5.57695129776527, 0, 0,                 !- X,Y,Z Vertex 2 {m}
  5.57695129776527, 3.048, 0,             !- X,Y,Z Vertex 3 {m}
  5.57695129776527, 3.048, 2.4384;        !- X,Y,Z Vertex 4 {m}

OS:Surface,
  {8adabc54-4e57-4188-866e-4ce5efacce8c}, !- Handle
  Surface 13,                             !- Name
  Wall,                                   !- Surface Type
  ,                                       !- Construction Name
  {7630ed53-8b49-4e48-99e4-d5c062badbe9}, !- Space Name
  Outdoors,                               !- Outside Boundary Condition
  ,                                       !- Outside Boundary Condition Object
  SunExposed,                             !- Sun Exposure
  WindExposed,                            !- Wind Exposure
  ,                                       !- View Factor to Ground
  ,                                       !- Number of Vertices
  0, 0, 2.4384,                           !- X,Y,Z Vertex 1 {m}
  0, 0, 0,                                !- X,Y,Z Vertex 2 {m}
  5.57695129776527, 0, 0,                 !- X,Y,Z Vertex 3 {m}
  5.57695129776527, 0, 2.4384;            !- X,Y,Z Vertex 4 {m}

OS:Surface,
  {96062949-bfa0-4304-91d0-d9d93dfa3b58}, !- Handle
  Surface 14,                             !- Name
  RoofCeiling,                            !- Surface Type
  ,                                       !- Construction Name
  {7630ed53-8b49-4e48-99e4-d5c062badbe9}, !- Space Name
  Surface,                                !- Outside Boundary Condition