!- NOTE: Auto-generated from /test/osw_files/SFD_HVACSizing_Load_1story_S_UA_Vented_LosAngeles.osw

OS:Version,
  {5f2b0cb1-c041-454c-a251-cce01b527b76}, !- Handle
  2.6.1;                                  !- Version Identifier

OS:Building,
  {f01f205d-5938-4c9f-83be-9b75da07d585}, !- Handle
  Building 1,                             !- Name
  ,                                       !- Building Sector Type
  22.5,                                   !- North Axis {deg}
  ,                                       !- Nominal Floor to Floor Height {m}
  ,                                       !- Space Type Name
  ,                                       !- Default Construction Set Name
  ,                                       !- Default Schedule Set Name
  1,                                      !- Standards Number of Stories
  1,                                      !- Standards Number of Above Ground Stories
  singlefamilydetached,                   !- Standards Building Type
  1;                                      !- Standards Number of Living Units

OS:Facility,
  {7909c136-b3db-4efe-807a-62154545f7f3}; !- Handle

OS:Site,
  {637a0146-4d27-4aa0-8bef-950af41d0d41}, !- Handle
  Los Angeles Intl Arpt_CA_USA,           !- Name
  33.93,                                  !- Latitude {deg}
  -118.4,                                 !- Longitude {deg}
  -8,                                     !- Time Zone {hr}
  30,                                     !- Elevation {m}
  Suburbs;                                !- Terrain

OS:SimulationControl,
  {12570b0c-6d83-4aeb-b3ff-93a95ccc8e4b}, !- Handle
  ,                                       !- Do Zone Sizing Calculation
  ,                                       !- Do System Sizing Calculation
  ,                                       !- Do Plant Sizing Calculation
  No;                                     !- Run Simulation for Sizing Periods

OS:Sizing:Parameters,
  {d678cccb-1c18-4b95-8ac3-c96a0b7288ca}, !- Handle
  1.25,                                   !- Heating Sizing Factor
  1.15;                                   !- Cooling Sizing Factor

OS:Timestep,
  {6d4b317c-b128-4808-8fa8-c2e5d33c56fa}, !- Handle
  6;                                      !- Number of Timesteps per Hour

OS:ShadowCalculation,
  {ae9c2b9f-527c-4b80-a20e-390079e9b958}, !- Handle
  20,                                     !- Calculation Frequency
  200;                                    !- Maximum Figures in Shadow Overlap Calculations

OS:HeatBalanceAlgorithm,
  {7d8282f3-03b3-41eb-b356-f88c9e819aa9}, !- Handle
  ConductionTransferFunction,             !- Algorithm
  200;                                    !- Surface Temperature Upper Limit {C}

OS:RunPeriod,
  {f1deac9c-11e1-47f6-bcfc-8804b90f23d1}, !- Handle
  Run Period 1,                           !- Name
  1,                                      !- Begin Month
  1,                                      !- Begin Day of Month
  12,                                     !- End Month
  31,                                     !- End Day of Month
  ,                                       !- Use Weather File Holidays and Special Days
  ,                                       !- Use Weather File Daylight Saving Period
  ,                                       !- Apply Weekend Holiday Rule
  ,                                       !- Use Weather File Rain Indicators
  ,                                       !- Use Weather File Snow Indicators
  ;                                       !- Number of Times Runperiod to be Repeated

OS:LifeCycleCost:Parameters,
  {5c19667c-81ef-4274-960e-8013801569ea}, !- Handle
  ,                                       !- Analysis Type
  ,                                       !- Discounting Convention
  ,                                       !- Inflation Approach
  ,                                       !- Real Discount Rate
  ,                                       !- Nominal Discount Rate
  ,                                       !- Inflation
  ,                                       !- Base Date Month
  ,                                       !- Base Date Year
  ,                                       !- Service Date Month
  ,                                       !- Service Date Year
  ;                                       !- Length of Study Period in Years

OS:SurfaceConvectionAlgorithm:Outside,
  {031a0a81-cd7d-4ca8-ada3-a2b374ca6e2c}, !- Handle
  DOE-2;                                  !- Algorithm

OS:SurfaceConvectionAlgorithm:Inside,
  {37ed1252-29ad-4d8f-9722-6296bf37ff8b}, !- Handle
  TARP;                                   !- Algorithm

OS:ZoneCapacitanceMultiplier:ResearchSpecial,
  {4e6cb659-0f94-47b3-8f73-1a13e99c3ed2}, !- Handle
  ,                                       !- Temperature Capacity Multiplier
  15,                                     !- Humidity Capacity Multiplier
  ;                                       !- Carbon Dioxide Capacity Multiplier

OS:WeatherFile,
  {b04ecc4e-4f82-4b5f-88e9-e698c811f5da}, !- Handle
  Los Angeles Intl Arpt,                  !- City
  CA,                                     !- State Province Region
  USA,                                    !- Country
  TMY3,                                   !- Data Source
  722950,                                 !- WMO Number
  33.93,                                  !- Latitude {deg}
  -118.4,                                 !- Longitude {deg}
  -8,                                     !- Time Zone {hr}
  30,                                     !- Elevation {m}
  file:../tests/USA_CA_Los.Angeles.Intl.AP.722950_TMY3.epw, !- Url
  2E4F946B;                               !- Checksum

OS:BuildingUnit,
  {2df9038b-dd2f-4f0b-9453-21efbbeb5a1e}, !- Handle
  EPWWeatherInfo,                         !- Name
  ,                                       !- Rendering Color
  Residential;                            !- Building Unit Type

OS:AdditionalProperties,
  {c1440a30-a7e9-409f-8899-555c2e35d3b5}, !- Handle
  {2df9038b-dd2f-4f0b-9453-21efbbeb5a1e}, !- Object Name
  EPWHeaderCity,                          !- Feature Name 1
  String,                                 !- Feature Data Type 1
  Los Angeles Intl Arpt,                  !- Feature Value 1
  EPWHeaderState,                         !- Feature Name 2
  String,                                 !- Feature Data Type 2
  CA,                                     !- Feature Value 2
  EPWHeaderCountry,                       !- Feature Name 3
  String,                                 !- Feature Data Type 3
  USA,                                    !- Feature Value 3
  EPWHeaderDataSource,                    !- Feature Name 4
  String,                                 !- Feature Data Type 4
  TMY3,                                   !- Feature Value 4
  EPWHeaderStation,                       !- Feature Name 5
  String,                                 !- Feature Data Type 5
  722950,                                 !- Feature Value 5
  EPWHeaderLatitude,                      !- Feature Name 6
  Double,                                 !- Feature Data Type 6
  33.93,                                  !- Feature Value 6
  EPWHeaderLongitude,                     !- Feature Name 7
  Double,                                 !- Feature Data Type 7
  -118.40000000000001,                    !- Feature Value 7
  EPWHeaderTimezone,                      !- Feature Name 8
  Double,                                 !- Feature Data Type 8
  -8,                                     !- Feature Value 8
  EPWHeaderAltitude,                      !- Feature Name 9
  Double,                                 !- Feature Data Type 9
  98.425196850393689,                     !- Feature Value 9
  EPWHeaderLocalPressure,                 !- Feature Name 10
  Double,                                 !- Feature Data Type 10
  0.99638450445644811,                    !- Feature Value 10
  EPWDataAnnualAvgDrybulb,                !- Feature Name 11
  Double,                                 !- Feature Data Type 11
  62.30741780821873,                      !- Feature Value 11
  EPWDataAnnualMinDrybulb,                !- Feature Name 12
  Double,                                 !- Feature Data Type 12
  42.079999999999998,                     !- Feature Value 12
  EPWDataAnnualMaxDrybulb,                !- Feature Name 13
  Double,                                 !- Feature Data Type 13
  89.960000000000008,                     !- Feature Value 13
  EPWDataCDD50F,                          !- Feature Name 14
  Double,                                 !- Feature Data Type 14
  4492.6799999999976,                     !- Feature Value 14
  EPWDataCDD65F,                          !- Feature Name 15
  Double,                                 !- Feature Data Type 15
  321.22500000000014,                     !- Feature Value 15
  EPWDataHDD50F,                          !- Feature Name 16
  Double,                                 !- Feature Data Type 16
  0.47250000000000514,                    !- Feature Value 16
  EPWDataHDD65F,                          !- Feature Name 17
  Double,                                 !- Feature Data Type 17
  1304.0174999999999,                     !- Feature Value 17
  EPWDataAnnualAvgWindspeed,              !- Feature Name 18
  Double,                                 !- Feature Data Type 18
  3.3630022831047977,                     !- Feature Value 18
  EPWDataMonthlyAvgDrybulbs,              !- Feature Name 19
  String,                                 !- Feature Data Type 19
  56.719516129032215&#4457.607410714285706&#4458.21491935483874&#4460.39375000000004&#4462.554758064516264&#4464.7362500000001&#4467.75661290322566&#4468.08249999999997&#4467.65599999999996&#4464.65282258064511&#4461.237500000000004&#4457.77677419354837, !- Feature Value 19
  EPWDataGroundMonthlyTemps,              !- Feature Name 20
  String,                                 !- Feature Data Type 20
  60.50450845061283&#4459.63543971266432&#4459.56584157146352&#4459.97825909390434&#4461.63388562939491&#4463.281799554129464&#4464.71045285535234&#4465.61546958466516&#4465.69235572672386&#4464.95627672997949&#4463.56405492672121&#4461.96669228912623, !- Feature Value 20
  EPWDataWSF,                             !- Feature Name 21
  Double,                                 !- Feature Data Type 21
  0.41999999999999998,                    !- Feature Value 21
  EPWDataMonthlyAvgDailyHighDrybulbs,     !- Feature Name 22
  String,                                 !- Feature Data Type 22
  65.17225806451611&#4464.63785714285714&#4465.71806451612903&#4467.004&#4468.01161290322581&#4469.956&#4473.55096774193547&#4472.81354838709677&#4473.94&#4472.3083870967742&#4469.80600000000001&#4467.4658064516129, !- Feature Value 22
  EPWDataMonthlyAvgDailyLowDrybulbs,      !- Feature Name 23
  String,                                 !- Feature Data Type 23
  49.61096774193548&#4451.324285714285715&#4451.561935483870975&#4454.824&#4458.20451612903227&#4460.848&#4463.09354838709677&#4464.29548387096776&#4462.756&#4458.941935483870964&#4454.26599999999999&#4449.84322580645161, !- Feature Value 23
  EPWDesignHeatingDrybulb,                !- Feature Name 24
  Double,                                 !- Feature Data Type 24
  46.399999999999999,                     !- Feature Value 24
  EPWDesignHeatingWindspeed,              !- Feature Name 25
  Double,                                 !- Feature Data Type 25
  9.0999999999999996,                     !- Feature Value 25
  EPWDesignCoolingDrybulb,                !- Feature Name 26
  Double,                                 !- Feature Data Type 26
  80.420000000000002,                     !- Feature Value 26
  EPWDesignCoolingWetbulb,                !- Feature Name 27
  Double,                                 !- Feature Data Type 27
  64.759999999999991,                     !- Feature Value 27
  EPWDesignCoolingHumidityRatio,          !- Feature Name 28
  Double,                                 !- Feature Data Type 28
  0.009400528269333467,                   !- Feature Value 28
  EPWDesignCoolingWindspeed,              !- Feature Name 29
  Double,                                 !- Feature Data Type 29
  4.0999999999999996,                     !- Feature Value 29
  EPWDesignDailyTemperatureRange,         !- Feature Name 30
  Double,                                 !- Feature Data Type 30
  10.800000000000001,                     !- Feature Value 30
  EPWDesignDehumidDrybulb,                !- Feature Name 31
  Double,                                 !- Feature Data Type 31
  71.960000000000008,                     !- Feature Value 31
  EPWDesignDehumidHumidityRatio,          !- Feature Name 32
  Double,                                 !- Feature Data Type 32
  0.013320430171140419,                   !- Feature Value 32
  EPWDesignCoolingDirectNormal,           !- Feature Name 33
  Double,                                 !- Feature Data Type 33
  761,                                    !- Feature Value 33
  EPWDesignCoolingDiffuseHorizontal,      !- Feature Name 34
  Double,                                 !- Feature Data Type 34
  276;                                    !- Feature Value 34

OS:YearDescription,
  {42784b17-f554-4b5e-989b-cb083e1e1cb6}, !- Handle
  ,                                       !- Calendar Year
  Monday;                                 !- Day of Week for Start Day

OS:ClimateZones,
  {4f581d4d-ace3-4ee2-af06-93880b76409d}, !- Handle
  ,                                       !- Active Institution
  ,                                       !- Active Year
  ,                                       !- Climate Zone Institution Name 1
  ,                                       !- Climate Zone Document Name 1
  ,                                       !- Climate Zone Document Year 1
  ,                                       !- Climate Zone Value 1
  Building America,                       !- Climate Zone Institution Name 2
  ,                                       !- Climate Zone Document Name 2
  0,                                      !- Climate Zone Document Year 2
  Hot-Dry;                                !- Climate Zone Value 2

OS:Site:WaterMainsTemperature,
  {74fac887-1bb7-4904-9287-df3102acec5b}, !- Handle
  Correlation,                            !- Calculation Method
  ,                                       !- Temperature Schedule Name
  16.8374543378993,                       !- Annual Average Outdoor Air Temperature {C}
  6.31276881720431;                       !- Maximum Difference In Monthly Average Outdoor Air Temperatures {deltaC}

OS:RunPeriodControl:DaylightSavingTime,
  {8b35bd17-d695-4b8d-9940-1a583d9b04a3}, !- Handle
  4/7,                                    !- Start Date
  10/26;                                  !- End Date

OS:Site:GroundTemperature:Deep,
  {bef19fab-dc84-409e-89ae-a2c12ce513ba}, !- Handle
  16.8374543378993,                       !- January Deep Ground Temperature {C}
  16.8374543378993,                       !- February Deep Ground Temperature {C}
  16.8374543378993,                       !- March Deep Ground Temperature {C}
  16.8374543378993,                       !- April Deep Ground Temperature {C}
  16.8374543378993,                       !- May Deep Ground Temperature {C}
  16.8374543378993,                       !- June Deep Ground Temperature {C}
  16.8374543378993,                       !- July Deep Ground Temperature {C}
  16.8374543378993,                       !- August Deep Ground Temperature {C}
  16.8374543378993,                       !- September Deep Ground Temperature {C}
  16.8374543378993,                       !- October Deep Ground Temperature {C}
  16.8374543378993,                       !- November Deep Ground Temperature {C}
  16.8374543378993;                       !- December Deep Ground Temperature {C}

OS:ThermalZone,
  {49a16f9c-7e0f-481d-a669-c0bde26b6b6c}, !- Handle
  living zone,                            !- Name
  ,                                       !- Multiplier
  ,                                       !- Ceiling Height {m}
  ,                                       !- Volume {m3}
  ,                                       !- Floor Area {m2}
  ,                                       !- Zone Inside Convection Algorithm
  ,                                       !- Zone Outside Convection Algorithm
  ,                                       !- Zone Conditioning Equipment List Name
  {49f3851e-a402-464b-815f-ea5c877e2fcc}, !- Zone Air Inlet Port List
  {45a6eb33-141e-45b5-ba33-bfe84ba233e5}, !- Zone Air Exhaust Port List
  {30c5e867-2617-4c2d-812d-cfda7b4a0c62}, !- Zone Air Node Name
  {38e58a29-fd1b-43d3-bff4-c97e76e8cc26}, !- Zone Return Air Port List
  ,                                       !- Primary Daylighting Control Name
  ,                                       !- Fraction of Zone Controlled by Primary Daylighting Control
  ,                                       !- Secondary Daylighting Control Name
  ,                                       !- Fraction of Zone Controlled by Secondary Daylighting Control
  ,                                       !- Illuminance Map Name
  ,                                       !- Group Rendering Name
  ,                                       !- Thermostat Name
  No;                                     !- Use Ideal Air Loads

OS:Node,
  {a45fe339-36b6-4492-863c-53e17ad34cbf}, !- Handle
  Node 1,                                 !- Name
  {30c5e867-2617-4c2d-812d-cfda7b4a0c62}, !- Inlet Port
  ;                                       !- Outlet Port

OS:Connection,
  {30c5e867-2617-4c2d-812d-cfda7b4a0c62}, !- Handle
  {b836b1f1-f763-47f3-b678-b9e11b126026}, !- Name
  {49a16f9c-7e0f-481d-a669-c0bde26b6b6c}, !- Source Object
  11,                                     !- Outlet Port
  {a45fe339-36b6-4492-863c-53e17ad34cbf}, !- Target Object
  2;                                      !- Inlet Port

OS:PortList,
  {49f3851e-a402-464b-815f-ea5c877e2fcc}, !- Handle
  {ea8a566d-2756-437f-8674-2b4886fbbdec}, !- Name
  {49a16f9c-7e0f-481d-a669-c0bde26b6b6c}; !- HVAC Component

OS:PortList,
  {45a6eb33-141e-45b5-ba33-bfe84ba233e5}, !- Handle
  {7166ba5d-8f44-4612-a678-8ae257be7f82}, !- Name
  {49a16f9c-7e0f-481d-a669-c0bde26b6b6c}; !- HVAC Component

OS:PortList,
  {38e58a29-fd1b-43d3-bff4-c97e76e8cc26}, !- Handle
  {8d88c80f-fe19-4a3b-8964-daa7ac2ced8a}, !- Name
  {49a16f9c-7e0f-481d-a669-c0bde26b6b6c}; !- HVAC Component

OS:Sizing:Zone,
  {e60b6d7f-421f-45cd-a80d-cd776eae8e76}, !- Handle
  {49a16f9c-7e0f-481d-a669-c0bde26b6b6c}, !- Zone or ZoneList Name
  SupplyAirTemperature,                   !- Zone Cooling Design Supply Air Temperature Input Method
  14,                                     !- Zone Cooling Design Supply Air Temperature {C}
  11.11,                                  !- Zone Cooling Design Supply Air Temperature Difference {deltaC}
  SupplyAirTemperature,                   !- Zone Heating Design Supply Air Temperature Input Method
  40,                                     !- Zone Heating Design Supply Air Temperature {C}
  11.11,                                  !- Zone Heating Design Supply Air Temperature Difference {deltaC}
  0.0085,                                 !- Zone Cooling Design Supply Air Humidity Ratio {kg-H2O/kg-air}
  0.008,                                  !- Zone Heating Design Supply Air Humidity Ratio {kg-H2O/kg-air}
  ,                                       !- Zone Heating Sizing Factor
  ,                                       !- Zone Cooling Sizing Factor
  DesignDay,                              !- Cooling Design Air Flow Method
  ,                                       !- Cooling Design Air Flow Rate {m3/s}
  ,                                       !- Cooling Minimum Air Flow per Zone Floor Area {m3/s-m2}
  ,                                       !- Cooling Minimum Air Flow {m3/s}
  ,                                       !- Cooling Minimum Air Flow Fraction
  DesignDay,                              !- Heating Design Air Flow Method
  ,                                       !- Heating Design Air Flow Rate {m3/s}
  ,                                       !- Heating Maximum Air Flow per Zone Floor Area {m3/s-m2}
  ,                                       !- Heating Maximum Air Flow {m3/s}
  ,                                       !- Heating Maximum Air Flow Fraction
  ,                                       !- Design Zone Air Distribution Effectiveness in Cooling Mode
  ,                                       !- Design Zone Air Distribution Effectiveness in Heating Mode
  No,                                     !- Account for Dedicated Outdoor Air System
  NeutralSupplyAir,                       !- Dedicated Outdoor Air System Control Strategy
  autosize,                               !- Dedicated Outdoor Air Low Setpoint Temperature for Design {C}
  autosize;                               !- Dedicated Outdoor Air High Setpoint Temperature for Design {C}

OS:ZoneHVAC:EquipmentList,
  {35b99f34-936d-42f9-a0c6-7d977240aea1}, !- Handle
  Zone HVAC Equipment List 1,             !- Name
  {49a16f9c-7e0f-481d-a669-c0bde26b6b6c}; !- Thermal Zone

OS:Space,
  {d108a5bb-4cfb-436a-98b2-126081db8b72}, !- Handle
  living space,                           !- Name
  {93ad25f3-3a8d-463f-bdce-b00a7ede4541}, !- Space Type Name
  ,                                       !- Default Construction Set Name
  ,                                       !- Default Schedule Set Name
  -0,                                     !- Direction of Relative North {deg}
  0,                                      !- X Origin {m}
  0,                                      !- Y Origin {m}
  0,                                      !- Z Origin {m}
  ,                                       !- Building Story Name
  {49a16f9c-7e0f-481d-a669-c0bde26b6b6c}, !- Thermal Zone Name
  ,                                       !- Part of Total Floor Area
  ,                                       !- Design Specification Outdoor Air Object Name
  {2415c1bc-8392-4a47-aa05-24d9803489c2}; !- Building Unit Name

OS:Surface,
  {cfec4180-634f-49b5-919a-f4dac9d4cff5}, !- Handle
  Surface 1,                              !- Name
  Floor,                                  !- Surface Type
  {5f92b43d-1590-49a1-88f2-5d5086bf5a8b}, !- Construction Name
  {d108a5bb-4cfb-436a-98b2-126081db8b72}, !- Space Name
  Foundation,                             !- Outside Boundary Condition
  {7a322d27-efa5-4a44-9df1-15927ed60678}, !- Outside Boundary Condition Object
  NoSun,                                  !- Sun Exposure
  NoWind,                                 !- Wind Exposure
  ,                                       !- View Factor to Ground
  ,                                       !- Number of Vertices
  0, 0, 0,                                !- X,Y,Z Vertex 1 {m}
  0, 7.01040000037894, 0,                 !- X,Y,Z Vertex 2 {m}
  11.2775999993904, 7.01040000037894, 0,  !- X,Y,Z Vertex 3 {m}
  11.2775999993904, 0, 0;                 !- X,Y,Z Vertex 4 {m}

OS:Surface,
  {a4de8da9-5e18-4042-8988-25682c29b4f1}, !- Handle
  Surface 2,                              !- Name
  Wall,                                   !- Surface Type
  {69585255-f0dd-40f4-999c-b6abe6b4000c}, !- Construction Name
  {d108a5bb-4cfb-436a-98b2-126081db8b72}, !- Space Name
  Outdoors,                               !- Outside Boundary Condition
  ,                                       !- Outside Boundary Condition Object
  SunExposed,                             !- Sun Exposure
  WindExposed,                            !- Wind Exposure
  ,                                       !- View Factor to Ground
  ,                                       !- Number of Vertices
  0, 7.01040000037894, 2.4384,            !- X,Y,Z Vertex 1 {m}
  0, 7.01040000037894, 0,                 !- X,Y,Z Vertex 2 {m}
  0, 0, 0,                                !- X,Y,Z Vertex 3 {m}
  0, 0, 2.4384;                           !- X,Y,Z Vertex 4 {m}

OS:Surface,
  {3a951f3e-859b-40b2-91e1-876b6372f1ee}, !- Handle
  Surface 3,                              !- Name
  Wall,                                   !- Surface Type
  {69585255-f0dd-40f4-999c-b6abe6b4000c}, !- Construction Name
  {d108a5bb-4cfb-436a-98b2-126081db8b72}, !- Space Name
  Outdoors,                               !- Outside Boundary Condition
  ,                                       !- Outside Boundary Condition Object
  SunExposed,                             !- Sun Exposure
  WindExposed,                            !- Wind Exposure
  ,                                       !- View Factor to Ground
  ,                                       !- Number of Vertices
  11.2775999993904, 7.01040000037894, 2.4384, !- X,Y,Z Vertex 1 {m}
  11.2775999993904, 7.01040000037894, 0,  !- X,Y,Z Vertex 2 {m}
  0, 7.01040000037894, 0,                 !- X,Y,Z Vertex 3 {m}
  0, 7.01040000037894, 2.4384;            !- X,Y,Z Vertex 4 {m}

OS:Surface,
  {21c2cfd2-2cc6-46d5-89ba-4d8fcb8ca05b}, !- Handle
  Surface 4,                              !- Name
  Wall,                                   !- Surface Type
  {69585255-f0dd-40f4-999c-b6abe6b4000c}, !- Construction Name
  {d108a5bb-4cfb-436a-98b2-126081db8b72}, !- Space Name
  Outdoors,                               !- Outside Boundary Condition
  ,                                       !- Outside Boundary Condition Object
  SunExposed,                             !- Sun Exposure
  WindExposed,                            !- Wind Exposure
  ,                                       !- View Factor to Ground
  ,                                       !- Number of Vertices
  11.2775999993904, 0, 2.4384,            !- X,Y,Z Vertex 1 {m}
  11.2775999993904, 0, 0,                 !- X,Y,Z Vertex 2 {m}
  11.2775999993904, 7.01040000037894, 0,  !- X,Y,Z Vertex 3 {m}
  11.2775999993904, 7.01040000037894, 2.4384; !- X,Y,Z Vertex 4 {m}

OS:Surface,
  {5a628d9d-2414-49df-8421-f25fdcfb9325}, !- Handle
  Surface 5,                              !- Name
  Wall,                                   !- Surface Type
  {69585255-f0dd-40f4-999c-b6abe6b4000c}, !- Construction Name
  {d108a5bb-4cfb-436a-98b2-126081db8b72}, !- Space Name
  Outdoors,                               !- Outside Boundary Condition
  ,                                       !- Outside Boundary Condition Object
  SunExposed,                             !- Sun Exposure
  WindExposed,                            !- Wind Exposure
  ,                                       !- View Factor to Ground
  ,                                       !- Number of Vertices
  11.2775999993904, 0, 0,                 !- X,Y,Z Vertex 1 {m}
  11.2775999993904, 0, 2.4384,            !- X,Y,Z Vertex 2 {m}
  1.04865714285714, 0, 2.4384,            !- X,Y,Z Vertex 3 {m}
  1.04865714285714, 0, 0;                 !- X,Y,Z Vertex 4 {m}

OS:Surface,
  {8ea521dd-ed57-4d31-9cb8-3e6427902589}, !- Handle
  Surface 6,                              !- Name
  RoofCeiling,                            !- Surface Type
  {5cd602f9-a598-4b56-803d-edc460195c07}, !- Construction Name
  {d108a5bb-4cfb-436a-98b2-126081db8b72}, !- Space Name
  Surface,                                !- Outside Boundary Condition
  {124ff245-619d-4d6b-8e68-3ae5d98af999}, !- Outside Boundary Condition Object
  NoSun,                                  !- Sun Exposure
  NoWind,                                 !- Wind Exposure
  ,                                       !- View Factor to Ground
  ,                                       !- Number of Vertices
  11.2775999993904, 0, 2.4384,            !- X,Y,Z Vertex 1 {m}
  11.2775999993904, 7.01040000037894, 2.4384, !- X,Y,Z Vertex 2 {m}
  0, 7.01040000037894, 2.4384,            !- X,Y,Z Vertex 3 {m}
  0, 0, 2.4384;                           !- X,Y,Z Vertex 4 {m}

OS:SpaceType,
  {93ad25f3-3a8d-463f-bdce-b00a7ede4541}, !- Handle
  Space Type 1,                           !- Name
  ,                                       !- Default Construction Set Name
  ,                                       !- Default Schedule Set Name
  ,                                       !- Group Rendering Name
  ,                                       !- Design Specification Outdoor Air Object Name
  ,                                       !- Standards Building Type
  living;                                 !- Standards Space Type

OS:Surface,
  {124ff245-619d-4d6b-8e68-3ae5d98af999}, !- Handle
  Surface 7,                              !- Name
  Floor,                                  !- Surface Type
  {3eddf5aa-f81e-410f-bca7-735eedbd266b}, !- Construction Name
  {eaf7a135-cf7e-46c4-b901-0ca13bcd4bc0}, !- Space Name
  Surface,                                !- Outside Boundary Condition
  {8ea521dd-ed57-4d31-9cb8-3e6427902589}, !- Outside Boundary Condition Object
  NoSun,                                  !- Sun Exposure
  NoWind,                                 !- Wind Exposure
  ,                                       !- View Factor to Ground
  ,                                       !- Number of Vertices
  0, 7.01040000037894, 0,                 !- X,Y,Z Vertex 1 {m}
  11.2775999993904, 7.01040000037894, 0,  !- X,Y,Z Vertex 2 {m}
  11.2775999993904, 0, 0,                 !- X,Y,Z Vertex 3 {m}
  0, 0, 0;                                !- X,Y,Z Vertex 4 {m}

OS:Surface,
  {213acdea-5772-4237-8c24-842d23fcaa05}, !- Handle
  Surface 8,                              !- Name
  RoofCeiling,                            !- Surface Type
  {e8c4cb91-0c44-468b-ad4a-a27354e7fcf9}, !- Construction Name
  {eaf7a135-cf7e-46c4-b901-0ca13bcd4bc0}, !- Space Name
  Outdoors,                               !- Outside Boundary Condition
  ,                                       !- Outside Boundary Condition Object
  SunExposed,                             !- Sun Exposure
  WindExposed,                            !- Wind Exposure
  ,                                       !- View Factor to Ground
  ,                                       !- Number of Vertices