!- NOTE: Auto-generated from /test/osw_files/SFD_HVACSizing_Load_1story_S_UA_Unvented_NoOverhangs_NoIntShading_NoMechVent.osw

OS:Version,
  {5bcc6f31-6709-485e-b4e5-1f41abad9945}, !- Handle
  2.6.2;                                  !- Version Identifier

OS:Building,
  {f7956de3-c072-4106-9bed-e91086bfc02d}, !- Handle
  Building 1,                             !- Name
  ,                                       !- Building Sector Type
  22.5,                                   !- North Axis {deg}
  ,                                       !- Nominal Floor to Floor Height {m}
  ,                                       !- Space Type Name
  ,                                       !- Default Construction Set Name
  ,                                       !- Default Schedule Set Name
  1,                                      !- Standards Number of Stories
  1,                                      !- Standards Number of Above Ground Stories
  singlefamilydetached,                   !- Standards Building Type
  1;                                      !- Standards Number of Living Units

OS:Facility,
  {6b8c3134-227e-421d-add4-5f2a76b5d64e}; !- Handle

OS:Site,
  {503b4dd2-1759-4ee1-b43a-d79dccd43cf0}, !- Handle
  Denver Intl Ap_CO_USA,                  !- Name
  39.83,                                  !- Latitude {deg}
  -104.65,                                !- Longitude {deg}
  -7,                                     !- Time Zone {hr}
  1650,                                   !- Elevation {m}
  Suburbs;                                !- Terrain

OS:SimulationControl,
  {c8fe0fd4-382b-4198-86ea-5aabe079f045}, !- Handle
  ,                                       !- Do Zone Sizing Calculation
  ,                                       !- Do System Sizing Calculation
  ,                                       !- Do Plant Sizing Calculation
  No;                                     !- Run Simulation for Sizing Periods

OS:Sizing:Parameters,
  {c395e286-f522-483a-b588-db1bc84d2ec5}, !- Handle
  1.25,                                   !- Heating Sizing Factor
  1.15;                                   !- Cooling Sizing Factor

OS:Timestep,
  {3ba81671-3799-48eb-83ce-1fa9188b366e}, !- Handle
  6;                                      !- Number of Timesteps per Hour

OS:ShadowCalculation,
  {61ba6654-1807-415d-b85b-18f89521cafd}, !- Handle
  20,                                     !- Calculation Frequency
  200;                                    !- Maximum Figures in Shadow Overlap Calculations

OS:HeatBalanceAlgorithm,
  {a683f13d-e7d7-4be4-8e60-a2ca9f53fb14}, !- Handle
  ConductionTransferFunction,             !- Algorithm
  200;                                    !- Surface Temperature Upper Limit {C}

OS:RunPeriod,
  {b680bf47-94a7-4e00-9d16-68be21422675}, !- Handle
  Run Period 1,                           !- Name
  1,                                      !- Begin Month
  1,                                      !- Begin Day of Month
  12,                                     !- End Month
  31,                                     !- End Day of Month
  ,                                       !- Use Weather File Holidays and Special Days
  ,                                       !- Use Weather File Daylight Saving Period
  ,                                       !- Apply Weekend Holiday Rule
  ,                                       !- Use Weather File Rain Indicators
  ,                                       !- Use Weather File Snow Indicators
  ;                                       !- Number of Times Runperiod to be Repeated

OS:LifeCycleCost:Parameters,
  {5b54e4b6-fb7f-4a40-8e9d-69654b3e0dea}, !- Handle
  ,                                       !- Analysis Type
  ,                                       !- Discounting Convention
  ,                                       !- Inflation Approach
  ,                                       !- Real Discount Rate
  ,                                       !- Nominal Discount Rate
  ,                                       !- Inflation
  ,                                       !- Base Date Month
  ,                                       !- Base Date Year
  ,                                       !- Service Date Month
  ,                                       !- Service Date Year
  ;                                       !- Length of Study Period in Years

OS:SurfaceConvectionAlgorithm:Outside,
  {d99b9b66-b5d7-4909-aaf3-aa18883c2de7}, !- Handle
  DOE-2;                                  !- Algorithm

OS:SurfaceConvectionAlgorithm:Inside,
  {7760ee9e-7d0a-485c-bbe7-fbf427135d1e}, !- Handle
  TARP;                                   !- Algorithm

OS:ZoneCapacitanceMultiplier:ResearchSpecial,
  {652cbe5f-f56e-48e1-bc0b-ee138a8a8d0f}, !- Handle
  ,                                       !- Temperature Capacity Multiplier
  15,                                     !- Humidity Capacity Multiplier
  ;                                       !- Carbon Dioxide Capacity Multiplier

OS:WeatherFile,
  {a6a6e2b8-e4c6-44d8-bffc-45bfdba000e0}, !- Handle
  Denver Intl Ap,                         !- City
  CO,                                     !- State Province Region
  USA,                                    !- Country
  TMY3,                                   !- Data Source
  725650,                                 !- WMO Number
  39.83,                                  !- Latitude {deg}
  -104.65,                                !- Longitude {deg}
  -7,                                     !- Time Zone {hr}
  1650,                                   !- Elevation {m}
  file:../tests/USA_CO_Denver_Intl_AP_725650_TMY3.epw, !- Url
  E23378AA;                               !- Checksum

OS:AdditionalProperties,
  {6b287bf5-76d8-4cf6-b70f-0ae6dc52c690}, !- Handle
  {a6a6e2b8-e4c6-44d8-bffc-45bfdba000e0}, !- Object Name
  EPWHeaderCity,                          !- Feature Name 1
  String,                                 !- Feature Data Type 1
  Denver Intl Ap,                         !- Feature Value 1
  EPWHeaderState,                         !- Feature Name 2
  String,                                 !- Feature Data Type 2
  CO,                                     !- Feature Value 2
  EPWHeaderCountry,                       !- Feature Name 3
  String,                                 !- Feature Data Type 3
  USA,                                    !- Feature Value 3
  EPWHeaderDataSource,                    !- Feature Name 4
  String,                                 !- Feature Data Type 4
  TMY3,                                   !- Feature Value 4
  EPWHeaderStation,                       !- Feature Name 5
  String,                                 !- Feature Data Type 5
  725650,                                 !- Feature Value 5
  EPWHeaderLatitude,                      !- Feature Name 6
  Double,                                 !- Feature Data Type 6
  39.829999999999998,                     !- Feature Value 6
  EPWHeaderLongitude,                     !- Feature Name 7
  Double,                                 !- Feature Data Type 7
  -104.65000000000001,                    !- Feature Value 7
  EPWHeaderTimezone,                      !- Feature Name 8
  Double,                                 !- Feature Data Type 8
  -7,                                     !- Feature Value 8
  EPWHeaderAltitude,                      !- Feature Name 9
  Double,                                 !- Feature Data Type 9
  5413.3858267716532,                     !- Feature Value 9
  EPWHeaderLocalPressure,                 !- Feature Name 10
  Double,                                 !- Feature Data Type 10
  0.81937567683596546,                    !- Feature Value 10
  EPWHeaderRecordsPerHour,                !- Feature Name 11
  Double,                                 !- Feature Data Type 11
  1,                                      !- Feature Value 11
  EPWDataAnnualAvgDrybulb,                !- Feature Name 12
  Double,                                 !- Feature Data Type 12
  51.575616438356228,                     !- Feature Value 12
  EPWDataAnnualMinDrybulb,                !- Feature Name 13
  Double,                                 !- Feature Data Type 13
  -2.9200000000000017,                    !- Feature Value 13
  EPWDataAnnualMaxDrybulb,                !- Feature Name 14
  Double,                                 !- Feature Data Type 14
  104,                                    !- Feature Value 14
  EPWDataCDD50F,                          !- Feature Name 15
  Double,                                 !- Feature Data Type 15
  3072.2925000000005,                     !- Feature Value 15
  EPWDataCDD65F,                          !- Feature Name 16
  Double,                                 !- Feature Data Type 16
  883.62000000000035,                     !- Feature Value 16
  EPWDataHDD50F,                          !- Feature Name 17
  Double,                                 !- Feature Data Type 17
  2497.1925000000001,                     !- Feature Value 17
  EPWDataHDD65F,                          !- Feature Name 18
  Double,                                 !- Feature Data Type 18
  5783.5200000000013,                     !- Feature Value 18
  EPWDataAnnualAvgWindspeed,              !- Feature Name 19
  Double,                                 !- Feature Data Type 19
  3.9165296803649667,                     !- Feature Value 19
  EPWDataMonthlyAvgDrybulbs,              !- Feature Name 20
  String,                                 !- Feature Data Type 20
  33.4191935483871&#4431.90142857142857&#4443.02620967741937&#4442.48624999999999&#4459.877741935483854&#4473.57574999999997&#4472.07975806451608&#4472.70008064516134&#4466.49200000000006&#4450.079112903225806&#4437.218250000000005&#4434.582177419354835, !- Feature Value 20
  EPWDataGroundMonthlyTemps,              !- Feature Name 21
  String,                                 !- Feature Data Type 21
  44.08306285945173&#4440.89570904991865&#4440.64045432632048&#4442.153016571250646&#4448.225111118704206&#4454.268919273837525&#4459.508577937551024&#4462.82777283423508&#4463.10975667174995&#4460.41014950381947&#4455.304105212311526&#4449.445696474514364, !- Feature Value 21
  EPWDataWSF,                             !- Feature Name 22
  Double,                                 !- Feature Data Type 22
  0.58999999999999997,                    !- Feature Value 22
  EPWDataMonthlyAvgDailyHighDrybulbs,     !- Feature Name 23
  String,                                 !- Feature Data Type 23
  47.41032258064516&#4446.58642857142857&#4455.15032258064517&#4453.708&#4472.80193548387098&#4488.67600000000002&#4486.1858064516129&#4485.87225806451613&#4482.082&#4463.18064516129033&#4448.73400000000001&#4448.87935483870968, !- Feature Value 23
  EPWDataMonthlyAvgDailyLowDrybulbs,      !- Feature Name 24
  String,                                 !- Feature Data Type 24
  19.347741935483874&#4419.856428571428573&#4430.316129032258065&#4431.112&#4447.41612903225806&#4457.901999999999994&#4459.063870967741934&#4460.956774193548384&#4452.352000000000004&#4438.41612903225806&#4427.002000000000002&#4423.02903225806451, !- Feature Value 24
  EPWDesignHeatingDrybulb,                !- Feature Name 25
  Double,                                 !- Feature Data Type 25
  6.8000000000000007,                     !- Feature Value 25
  EPWDesignHeatingWindspeed,              !- Feature Name 26
  Double,                                 !- Feature Data Type 26
  12,                                     !- Feature Value 26
  EPWDesignCoolingDrybulb,                !- Feature Name 27
  Double,                                 !- Feature Data Type 27
  91.760000000000005,                     !- Feature Value 27
  EPWDesignCoolingWetbulb,                !- Feature Name 28
  Double,                                 !- Feature Data Type 28
  60.079999999999998,                     !- Feature Value 28
  EPWDesignCoolingHumidityRatio,          !- Feature Name 29
  Double,                                 !- Feature Data Type 29
  0.006050392196571398,                   !- Feature Value 29
  EPWDesignCoolingWindspeed,              !- Feature Name 30
  Double,                                 !- Feature Data Type 30
  4.2000000000000002,                     !- Feature Value 30
  EPWDesignDailyTemperatureRange,         !- Feature Name 31
  Double,                                 !- Feature Data Type 31
  27.359999999999999,                     !- Feature Value 31
  EPWDesignDehumidDrybulb,                !- Feature Name 32
  Double,                                 !- Feature Data Type 32
  67.280000000000001,                     !- Feature Value 32
  EPWDesignDehumidHumidityRatio,          !- Feature Name 33
  Double,                                 !- Feature Data Type 33
  0.012295426899271008,                   !- Feature Value 33
  EPWDesignCoolingDirectNormal,           !- Feature Name 34
  Double,                                 !- Feature Data Type 34
  985,                                    !- Feature Value 34
  EPWDesignCoolingDiffuseHorizontal,      !- Feature Name 35
  Double,                                 !- Feature Data Type 35
  84;                                     !- Feature Value 35

OS:YearDescription,
  {e8518981-9e62-4fa7-8c33-8ac59e5faa5e}, !- Handle
  ,                                       !- Calendar Year
  Monday;                                 !- Day of Week for Start Day

OS:ClimateZones,
  {50b87ec8-560d-4bdd-a687-5eea58c17bbb}, !- Handle
  ,                                       !- Active Institution
  ,                                       !- Active Year
  ,                                       !- Climate Zone Institution Name 1
  ,                                       !- Climate Zone Document Name 1
  ,                                       !- Climate Zone Document Year 1
  ,                                       !- Climate Zone Value 1
  Building America,                       !- Climate Zone Institution Name 2
  ,                                       !- Climate Zone Document Name 2
  0,                                      !- Climate Zone Document Year 2
  Cold;                                   !- Climate Zone Value 2

OS:Site:WaterMainsTemperature,
  {8f917f2b-6f7a-4c3f-bc96-c844d7cc9aee}, !- Handle
  Correlation,                            !- Calculation Method
  ,                                       !- Temperature Schedule Name
  10.8753424657535,                       !- Annual Average Outdoor Air Temperature {C}
  23.1524007936508;                       !- Maximum Difference In Monthly Average Outdoor Air Temperatures {deltaC}

OS:RunPeriodControl:DaylightSavingTime,
  {65ac9cfc-57f9-469f-8d48-cb9a75f9aa42}, !- Handle
  4/7,                                    !- Start Date
  10/26;                                  !- End Date

OS:Site:GroundTemperature:Deep,
  {ca29ebaf-98e3-45a6-a757-c3f51a41ad16}, !- Handle
  10.8753424657535,                       !- January Deep Ground Temperature {C}
  10.8753424657535,                       !- February Deep Ground Temperature {C}
  10.8753424657535,                       !- March Deep Ground Temperature {C}
  10.8753424657535,                       !- April Deep Ground Temperature {C}
  10.8753424657535,                       !- May Deep Ground Temperature {C}
  10.8753424657535,                       !- June Deep Ground Temperature {C}
  10.8753424657535,                       !- July Deep Ground Temperature {C}
  10.8753424657535,                       !- August Deep Ground Temperature {C}
  10.8753424657535,                       !- September Deep Ground Temperature {C}
  10.8753424657535,                       !- October Deep Ground Temperature {C}
  10.8753424657535,                       !- November Deep Ground Temperature {C}
  10.8753424657535;                       !- December Deep Ground Temperature {C}

OS:ThermalZone,
  {d81a1c30-63fa-4b23-b732-272d63d82c6c}, !- Handle
  living zone,                            !- Name
  ,                                       !- Multiplier
  ,                                       !- Ceiling Height {m}
  ,                                       !- Volume {m3}
  ,                                       !- Floor Area {m2}
  ,                                       !- Zone Inside Convection Algorithm
  ,                                       !- Zone Outside Convection Algorithm
  ,                                       !- Zone Conditioning Equipment List Name
  {9efc9aa4-2606-4824-8803-c3bed36fe6c1}, !- Zone Air Inlet Port List
  {170c5994-3e3e-4031-bc98-d70be9308875}, !- Zone Air Exhaust Port List
  {a4732374-6017-4e30-bfe1-a227b2a7d707}, !- Zone Air Node Name
  {5801a9ba-1aa2-40e2-bb57-5c81892ef312}, !- Zone Return Air Port List
  ,                                       !- Primary Daylighting Control Name
  ,                                       !- Fraction of Zone Controlled by Primary Daylighting Control
  ,                                       !- Secondary Daylighting Control Name
  ,                                       !- Fraction of Zone Controlled by Secondary Daylighting Control
  ,                                       !- Illuminance Map Name
  ,                                       !- Group Rendering Name
  ,                                       !- Thermostat Name
  No;                                     !- Use Ideal Air Loads

OS:Node,
  {57d0e2a2-18ad-4bce-87a2-e3e7d1012ffa}, !- Handle
  Node 1,                                 !- Name
  {a4732374-6017-4e30-bfe1-a227b2a7d707}, !- Inlet Port
  ;                                       !- Outlet Port

OS:Connection,
  {a4732374-6017-4e30-bfe1-a227b2a7d707}, !- Handle
  {daecf5ef-6c76-497c-b9f8-010a74e580e3}, !- Name
  {d81a1c30-63fa-4b23-b732-272d63d82c6c}, !- Source Object
  11,                                     !- Outlet Port
  {57d0e2a2-18ad-4bce-87a2-e3e7d1012ffa}, !- Target Object
  2;                                      !- Inlet Port

OS:PortList,
  {9efc9aa4-2606-4824-8803-c3bed36fe6c1}, !- Handle
  {d6c82f3f-3cf8-490f-ac1e-05ed73128012}, !- Name
  {d81a1c30-63fa-4b23-b732-272d63d82c6c}; !- HVAC Component

OS:PortList,
  {170c5994-3e3e-4031-bc98-d70be9308875}, !- Handle
  {b78aa5bc-7c0c-48c3-b379-7e27649d1954}, !- Name
  {d81a1c30-63fa-4b23-b732-272d63d82c6c}; !- HVAC Component

OS:PortList,
  {5801a9ba-1aa2-40e2-bb57-5c81892ef312}, !- Handle
  {861f89ce-128c-404b-bc42-a61d204b6d2a}, !- Name
  {d81a1c30-63fa-4b23-b732-272d63d82c6c}; !- HVAC Component

OS:Sizing:Zone,
  {d72ced26-eb41-45c8-9c40-818235c891f7}, !- Handle
  {d81a1c30-63fa-4b23-b732-272d63d82c6c}, !- Zone or ZoneList Name
  SupplyAirTemperature,                   !- Zone Cooling Design Supply Air Temperature Input Method
  14,                                     !- Zone Cooling Design Supply Air Temperature {C}
  11.11,                                  !- Zone Cooling Design Supply Air Temperature Difference {deltaC}
  SupplyAirTemperature,                   !- Zone Heating Design Supply Air Temperature Input Method
  40,                                     !- Zone Heating Design Supply Air Temperature {C}
  11.11,                                  !- Zone Heating Design Supply Air Temperature Difference {deltaC}
  0.0085,                                 !- Zone Cooling Design Supply Air Humidity Ratio {kg-H2O/kg-air}
  0.008,                                  !- Zone Heating Design Supply Air Humidity Ratio {kg-H2O/kg-air}
  ,                                       !- Zone Heating Sizing Factor
  ,                                       !- Zone Cooling Sizing Factor
  DesignDay,                              !- Cooling Design Air Flow Method
  ,                                       !- Cooling Design Air Flow Rate {m3/s}
  ,                                       !- Cooling Minimum Air Flow per Zone Floor Area {m3/s-m2}
  ,                                       !- Cooling Minimum Air Flow {m3/s}
  ,                                       !- Cooling Minimum Air Flow Fraction
  DesignDay,                              !- Heating Design Air Flow Method
  ,                                       !- Heating Design Air Flow Rate {m3/s}
  ,                                       !- Heating Maximum Air Flow per Zone Floor Area {m3/s-m2}
  ,                                       !- Heating Maximum Air Flow {m3/s}
  ,                                       !- Heating Maximum Air Flow Fraction
  ,                                       !- Design Zone Air Distribution Effectiveness in Cooling Mode
  ,                                       !- Design Zone Air Distribution Effectiveness in Heating Mode
  No,                                     !- Account for Dedicated Outdoor Air System
  NeutralSupplyAir,                       !- Dedicated Outdoor Air System Control Strategy
  autosize,                               !- Dedicated Outdoor Air Low Setpoint Temperature for Design {C}
  autosize;                               !- Dedicated Outdoor Air High Setpoint Temperature for Design {C}

OS:ZoneHVAC:EquipmentList,
  {4db2b5f4-34e1-4f71-aa04-f2e3161a5b8b}, !- Handle
  Zone HVAC Equipment List 1,             !- Name
  {d81a1c30-63fa-4b23-b732-272d63d82c6c}; !- Thermal Zone

OS:Space,
  {f1b842f6-0612-478f-bae3-bae2d417bb6c}, !- Handle
  living space,                           !- Name
  {e55c5ba7-ebcb-4ed2-8bfc-32f1e598e010}, !- Space Type Name
  ,                                       !- Default Construction Set Name
  ,                                       !- Default Schedule Set Name
  -0,                                     !- Direction of Relative North {deg}
  0,                                      !- X Origin {m}
  0,                                      !- Y Origin {m}
  0,                                      !- Z Origin {m}
  ,                                       !- Building Story Name
  {d81a1c30-63fa-4b23-b732-272d63d82c6c}, !- Thermal Zone Name
  ,                                       !- Part of Total Floor Area
  ,                                       !- Design Specification Outdoor Air Object Name
  {f878364a-f4de-491d-8d77-25cde583874f}; !- Building Unit Name

OS:Surface,
  {9f4477f2-4754-4228-9f2f-3b18b96345be}, !- Handle
  Surface 1,                              !- Name
  Floor,                                  !- Surface Type
  {a975291b-98b0-484e-9871-b16d22f3a705}, !- Construction Name
  {f1b842f6-0612-478f-bae3-bae2d417bb6c}, !- Space Name
  Foundation,                             !- Outside Boundary Condition
  {39b9fd58-08c2-437a-9d7d-49c063bf830b}, !- Outside Boundary Condition Object
  NoSun,                                  !- Sun Exposure
  NoWind,                                 !- Wind Exposure
  ,                                       !- View Factor to Ground
  ,                                       !- Number of Vertices
  0, 0, 0,                                !- X,Y,Z Vertex 1 {m}
  0, 7.01040000037894, 0,                 !- X,Y,Z Vertex 2 {m}
  11.2775999993904, 7.01040000037894, 0,  !- X,Y,Z Vertex 3 {m}
  11.2775999993904, 0, 0;                 !- X,Y,Z Vertex 4 {m}

OS:Surface,
  {1cf4fe47-28e4-412f-84c0-48216c4bab81}, !- Handle
  Surface 2,                              !- Name
  Wall,                                   !- Surface Type
  {e80ca584-c7dd-4b49-93ce-28090beb6439}, !- Construction Name
  {f1b842f6-0612-478f-bae3-bae2d417bb6c}, !- Space Name
  Outdoors,                               !- Outside Boundary Condition
  ,                                       !- Outside Boundary Condition Object
  SunExposed,                             !- Sun Exposure
  WindExposed,                            !- Wind Exposure
  ,                                       !- View Factor to Ground
  ,                                       !- Number of Vertices
  0, 7.01040000037894, 2.4384,            !- X,Y,Z Vertex 1 {m}
  0, 7.01040000037894, 0,                 !- X,Y,Z Vertex 2 {m}
  0, 0, 0,                                !- X,Y,Z Vertex 3 {m}
  0, 0, 2.4384;                           !- X,Y,Z Vertex 4 {m}

OS:Surface,
  {97446b74-f7e4-442e-99ab-d66cde341293}, !- Handle
  Surface 3,                              !- Name
  Wall,                                   !- Surface Type
  {e80ca584-c7dd-4b49-93ce-28090beb6439}, !- Construction Name
  {f1b842f6-0612-478f-bae3-bae2d417bb6c}, !- Space Name
  Outdoors,                               !- Outside Boundary Condition
  ,                                       !- Outside Boundary Condition Object
  SunExposed,                             !- Sun Exposure
  WindExposed,                            !- Wind Exposure
  ,                                       !- View Factor to Ground
  ,                                       !- Number of Vertices
  11.2775999993904, 7.01040000037894, 2.4384, !- X,Y,Z Vertex 1 {m}
  11.2775999993904, 7.01040000037894, 0,  !- X,Y,Z Vertex 2 {m}
  0, 7.01040000037894, 0,                 !- X,Y,Z Vertex 3 {m}
  0, 7.01040000037894, 2.4384;            !- X,Y,Z Vertex 4 {m}

OS:Surface,
  {61b46609-44c5-4432-9d4f-7daff2b34d05}, !- Handle
  Surface 4,                              !- Name
  Wall,                                   !- Surface Type
  {e80ca584-c7dd-4b49-93ce-28090beb6439}, !- Construction Name
  {f1b842f6-0612-478f-bae3-bae2d417bb6c}, !- Space Name
  Outdoors,                               !- Outside Boundary Condition
  ,                                       !- Outside Boundary Condition Object
  SunExposed,                             !- Sun Exposure
  WindExposed,                            !- Wind Exposure
  ,                                       !- View Factor to Ground
  ,                                       !- Number of Vertices
  11.2775999993904, 0, 2.4384,            !- X,Y,Z Vertex 1 {m}
  11.2775999993904, 0, 0,                 !- X,Y,Z Vertex 2 {m}
  11.2775999993904, 7.01040000037894, 0,  !- X,Y,Z Vertex 3 {m}
  11.2775999993904, 7.01040000037894, 2.4384; !- X,Y,Z Vertex 4 {m}

OS:Surface,
  {22cdceb9-f89f-47a5-b00c-242f8d8b6577}, !- Handle
  Surface 5,                              !- Name
  Wall,                                   !- Surface Type
  {e80ca584-c7dd-4b49-93ce-28090beb6439}, !- Construction Name
  {f1b842f6-0612-478f-bae3-bae2d417bb6c}, !- Space Name
  Outdoors,                               !- Outside Boundary Condition
  ,                                       !- Outside Boundary Condition Object
  SunExposed,                             !- Sun Exposure
  WindExposed,                            !- Wind Exposure
  ,                                       !- View Factor to Ground
  ,                                       !- Number of Vertices
  11.2775999993904, 0, 0,                 !- X,Y,Z Vertex 1 {m}
  11.2775999993904, 0, 2.4384,            !- X,Y,Z Vertex 2 {m}
  1.04865714285714, 0, 2.4384,            !- X,Y,Z Vertex 3 {m}
  1.04865714285714, 0, 0;                 !- X,Y,Z Vertex 4 {m}

OS:Surface,
  {d32442c8-31a7-4c6b-91ae-04a8ef2afaa5}, !- Handle
  Surface 6,                              !- Name
  RoofCeiling,                            !- Surface Type
  {1b0a5bc9-a2e9-4800-a7b0-1f755b5906eb}, !- Construction Name
  {f1b842f6-0612-478f-bae3-bae2d417bb6c}, !- Space Name
  Surface,                                !- Outside Boundary Condition
  {cfd50b12-179c-479a-ac76-7d843e5efe18}, !- Outside Boundary Condition Object
  NoSun,                                  !- Sun Exposure
  NoWind,                                 !- Wind Exposure
  ,                                       !- View Factor to Ground
  ,                                       !- Number of Vertices
  11.2775999993904, 0, 2.4384,            !- X,Y,Z Vertex 1 {m}
  11.2775999993904, 7.01040000037894, 2.4384, !- X,Y,Z Vertex 2 {m}
  0, 7.01040000037894, 2.4384,            !- X,Y,Z Vertex 3 {m}
  0, 0, 2.4384;                           !- X,Y,Z Vertex 4 {m}

OS:SpaceType,
  {e55c5ba7-ebcb-4ed2-8bfc-32f1e598e010}, !- Handle
  Space Type 1,                           !- Name
  ,                                       !- Default Construction Set Name
  ,                                       !- Default Schedule Set Name
  ,                                       !- Group Rendering Name
  ,                                       !- Design Specification Outdoor Air Object Name
  ,                                       !- Standards Building Type
  living;                                 !- Standards Space Type

OS:Surface,
  {cfd50b12-179c-479a-ac76-7d843e5efe18}, !- Handle
  Surface 7,                              !- Name
  Floor,                                  !- Surface Type
  {7daa48f3-0b12-4fee-95fe-2ce6e4719459}, !- Construction Name
  {edd4ca5f-f511-4086-88a8-5835cdaa87ae}, !- Space Name
  Surface,                                !- Outside Boundary Condition
  {d32442c8-31a7-4c6b-91ae-04a8ef2afaa5}, !- Outside Boundary Condition Object
  NoSun,                                  !- Sun Exposure
  NoWind,                                 !- Wind Exposure
  ,                                       !- View Factor to Ground
  ,                                       !- Number of Vertices
  0, 7.01040000037894, 0,                 !- X,Y,Z Vertex 1 {m}
  11.2775999993904, 7.01040000037894, 0,  !- X,Y,Z Vertex 2 {m}
  11.2775999993904, 0, 0,                 !- X,Y,Z Vertex 3 {m}
  0, 0, 0;                                !- X,Y,Z Vertex 4 {m}

OS:Surface,
  {736a4e31-015d-478b-b934-bc3fd20a5fb9}, !- Handle
  Surface 8,                              !- Name
  RoofCeiling,                            !- Surface Type
  {048f04de-414c-4eaf-b411-477d7c8e0cb4}, !- Construction Name
  {edd4ca5f-f511-4086-88a8-5835cdaa87ae}, !- Space Name
  Outdoors,                               !- Outside Boundary Condition
  ,                                       !- Outside Boundary Condition Object
  SunExposed,                             !- Sun Exposure
  WindExposed,                            !- Wind Exposure
  ,                                       !- View Factor to Ground