!- NOTE: Auto-generated from /test/osw_files/SFD_HVACSizing_Equip_GF_ACV_Fixed.osw

OS:Version,
  {4b4b0e06-5608-4a40-afa6-814b78a40afa}, !- Handle
  2.6.0;                                  !- Version Identifier

OS:Building,
  {f129f870-3553-43d8-96dd-4dea626d3b7b}, !- Handle
  Building 1,                             !- Name
  ,                                       !- Building Sector Type
  22.5,                                   !- North Axis {deg}
  ,                                       !- Nominal Floor to Floor Height {m}
  ,                                       !- Space Type Name
  ,                                       !- Default Construction Set Name
  ,                                       !- Default Schedule Set Name
  4,                                      !- Standards Number of Stories
  3,                                      !- Standards Number of Above Ground Stories
  singlefamilydetached,                   !- Standards Building Type
  1;                                      !- Standards Number of Living Units

OS:Facility,
  {03129945-0d53-44c2-8781-0375e400827c}; !- Handle

OS:Site,
  {fc41d257-08bf-4784-b839-9df8e22cea45}, !- Handle
  Denver Intl Ap_CO_USA,                  !- Name
  39.83,                                  !- Latitude {deg}
  -104.65,                                !- Longitude {deg}
  -7,                                     !- Time Zone {hr}
  1650,                                   !- Elevation {m}
  Suburbs;                                !- Terrain

OS:SimulationControl,
  {84526e29-7a6b-4527-9095-b3717bd07497}, !- Handle
  ,                                       !- Do Zone Sizing Calculation
  ,                                       !- Do System Sizing Calculation
  ,                                       !- Do Plant Sizing Calculation
  No;                                     !- Run Simulation for Sizing Periods

OS:Sizing:Parameters,
  {9a1ec7bd-75b5-4ceb-8ca6-774a81abd1bc}, !- Handle
  1.25,                                   !- Heating Sizing Factor
  1.15;                                   !- Cooling Sizing Factor

OS:Timestep,
  {982f1876-e690-424e-a577-bf707c6cb876}, !- Handle
  6;                                      !- Number of Timesteps per Hour

OS:ShadowCalculation,
  {afdfddd6-dc4c-442c-b775-7cca416d9218}, !- Handle
  20,                                     !- Calculation Frequency
  200;                                    !- Maximum Figures in Shadow Overlap Calculations

OS:HeatBalanceAlgorithm,
  {1a046f53-48f5-4c0a-b546-4de7b27e3eae}, !- Handle
  ConductionTransferFunction,             !- Algorithm
  200;                                    !- Surface Temperature Upper Limit {C}

OS:RunPeriod,
  {4a7e9563-3d53-47ea-b23b-bc59efc6996e}, !- Handle
  Run Period 1,                           !- Name
  1,                                      !- Begin Month
  1,                                      !- Begin Day of Month
  12,                                     !- End Month
  31,                                     !- End Day of Month
  ,                                       !- Use Weather File Holidays and Special Days
  ,                                       !- Use Weather File Daylight Saving Period
  ,                                       !- Apply Weekend Holiday Rule
  ,                                       !- Use Weather File Rain Indicators
  ,                                       !- Use Weather File Snow Indicators
  ;                                       !- Number of Times Runperiod to be Repeated

OS:LifeCycleCost:Parameters,
  {1c50da4c-8d7c-4fd7-a9e1-ebe27ea98a07}, !- Handle
  ,                                       !- Analysis Type
  ,                                       !- Discounting Convention
  ,                                       !- Inflation Approach
  ,                                       !- Real Discount Rate
  ,                                       !- Nominal Discount Rate
  ,                                       !- Inflation
  ,                                       !- Base Date Month
  ,                                       !- Base Date Year
  ,                                       !- Service Date Month
  ,                                       !- Service Date Year
  ;                                       !- Length of Study Period in Years

OS:SurfaceConvectionAlgorithm:Outside,
  {c7cfe939-c517-40d6-bbd3-a6b8db2da65d}, !- Handle
  DOE-2;                                  !- Algorithm

OS:SurfaceConvectionAlgorithm:Inside,
  {53b8e5e9-0c1d-4fc1-ae76-045713aec394}, !- Handle
  TARP;                                   !- Algorithm

OS:ZoneCapacitanceMultiplier:ResearchSpecial,
  {ada74b50-db25-43e7-bd44-2ae1f697281a}, !- Handle
  ,                                       !- Temperature Capacity Multiplier
  15,                                     !- Humidity Capacity Multiplier
  ;                                       !- Carbon Dioxide Capacity Multiplier

OS:WeatherFile,
  {73f5f4b7-733d-4eff-82ce-3c30f9ac264a}, !- Handle
  Denver Intl Ap,                         !- City
  CO,                                     !- State Province Region
  USA,                                    !- Country
  TMY3,                                   !- Data Source
  725650,                                 !- WMO Number
  39.83,                                  !- Latitude {deg}
  -104.65,                                !- Longitude {deg}
  -7,                                     !- Time Zone {hr}
  1650,                                   !- Elevation {m}
  file:../tests/USA_CO_Denver_Intl_AP_725650_TMY3.epw, !- Url
  E23378AA;                               !- Checksum

OS:BuildingUnit,
  {ef2398be-f673-4ee4-b93f-4721dec859d3}, !- Handle
  EPWWeatherInfo,                         !- Name
  ,                                       !- Rendering Color
  Residential;                            !- Building Unit Type

OS:AdditionalProperties,
  {3eddb9cd-1c39-47c2-b2ce-41de3f19978f}, !- Handle
  {ef2398be-f673-4ee4-b93f-4721dec859d3}, !- Object Name
  EPWHeaderCity,                          !- Feature Name 1
  String,                                 !- Feature Data Type 1
  Denver Intl Ap,                         !- Feature Value 1
  EPWHeaderState,                         !- Feature Name 2
  String,                                 !- Feature Data Type 2
  CO,                                     !- Feature Value 2
  EPWHeaderCountry,                       !- Feature Name 3
  String,                                 !- Feature Data Type 3
  USA,                                    !- Feature Value 3
  EPWHeaderDataSource,                    !- Feature Name 4
  String,                                 !- Feature Data Type 4
  TMY3,                                   !- Feature Value 4
  EPWHeaderStation,                       !- Feature Name 5
  String,                                 !- Feature Data Type 5
  725650,                                 !- Feature Value 5
  EPWHeaderLatitude,                      !- Feature Name 6
  Double,                                 !- Feature Data Type 6
  39.829999999999998,                     !- Feature Value 6
  EPWHeaderLongitude,                     !- Feature Name 7
  Double,                                 !- Feature Data Type 7
  -104.65000000000001,                    !- Feature Value 7
  EPWHeaderTimezone,                      !- Feature Name 8
  Double,                                 !- Feature Data Type 8
  -7,                                     !- Feature Value 8
  EPWHeaderAltitude,                      !- Feature Name 9
  Double,                                 !- Feature Data Type 9
  5413.3858267716532,                     !- Feature Value 9
  EPWHeaderLocalPressure,                 !- Feature Name 10
  Double,                                 !- Feature Data Type 10
  0.81937567683596546,                    !- Feature Value 10
  EPWDataAnnualAvgDrybulb,                !- Feature Name 11
  Double,                                 !- Feature Data Type 11
  51.575616438356228,                     !- Feature Value 11
  EPWDataAnnualMinDrybulb,                !- Feature Name 12
  Double,                                 !- Feature Data Type 12
  -2.9200000000000017,                    !- Feature Value 12
  EPWDataAnnualMaxDrybulb,                !- Feature Name 13
  Double,                                 !- Feature Data Type 13
  104,                                    !- Feature Value 13
  EPWDataCDD50F,                          !- Feature Name 14
  Double,                                 !- Feature Data Type 14
  3072.2925000000005,                     !- Feature Value 14
  EPWDataCDD65F,                          !- Feature Name 15
  Double,                                 !- Feature Data Type 15
  883.62000000000035,                     !- Feature Value 15
  EPWDataHDD50F,                          !- Feature Name 16
  Double,                                 !- Feature Data Type 16
  2497.1925000000001,                     !- Feature Value 16
  EPWDataHDD65F,                          !- Feature Name 17
  Double,                                 !- Feature Data Type 17
  5783.5200000000013,                     !- Feature Value 17
  EPWDataAnnualAvgWindspeed,              !- Feature Name 18
  Double,                                 !- Feature Data Type 18
  3.9165296803649667,                     !- Feature Value 18
  EPWDataMonthlyAvgDrybulbs,              !- Feature Name 19
  String,                                 !- Feature Data Type 19
  33.4191935483871&#4431.90142857142857&#4443.02620967741937&#4442.48624999999999&#4459.877741935483854&#4473.57574999999997&#4472.07975806451608&#4472.70008064516134&#4466.49200000000006&#4450.079112903225806&#4437.218250000000005&#4434.582177419354835, !- Feature Value 19
  EPWDataGroundMonthlyTemps,              !- Feature Name 20
  String,                                 !- Feature Data Type 20
  44.08306285945173&#4440.89570904991865&#4440.64045432632048&#4442.153016571250646&#4448.225111118704206&#4454.268919273837525&#4459.508577937551024&#4462.82777283423508&#4463.10975667174995&#4460.41014950381947&#4455.304105212311526&#4449.445696474514364, !- Feature Value 20
  EPWDataWSF,                             !- Feature Name 21
  Double,                                 !- Feature Data Type 21
  0.58999999999999997,                    !- Feature Value 21
  EPWDataMonthlyAvgDailyHighDrybulbs,     !- Feature Name 22
  String,                                 !- Feature Data Type 22
  47.41032258064516&#4446.58642857142857&#4455.15032258064517&#4453.708&#4472.80193548387098&#4488.67600000000002&#4486.1858064516129&#4485.87225806451613&#4482.082&#4463.18064516129033&#4448.73400000000001&#4448.87935483870968, !- Feature Value 22
  EPWDataMonthlyAvgDailyLowDrybulbs,      !- Feature Name 23
  String,                                 !- Feature Data Type 23
  19.347741935483874&#4419.856428571428573&#4430.316129032258065&#4431.112&#4447.41612903225806&#4457.901999999999994&#4459.063870967741934&#4460.956774193548384&#4452.352000000000004&#4438.41612903225806&#4427.002000000000002&#4423.02903225806451, !- Feature Value 23
  EPWDesignHeatingDrybulb,                !- Feature Name 24
  Double,                                 !- Feature Data Type 24
  6.8000000000000007,                     !- Feature Value 24
  EPWDesignHeatingWindspeed,              !- Feature Name 25
  Double,                                 !- Feature Data Type 25
  12,                                     !- Feature Value 25
  EPWDesignCoolingDrybulb,                !- Feature Name 26
  Double,                                 !- Feature Data Type 26
  91.760000000000005,                     !- Feature Value 26
  EPWDesignCoolingWetbulb,                !- Feature Name 27
  Double,                                 !- Feature Data Type 27
  60.079999999999998,                     !- Feature Value 27
  EPWDesignCoolingHumidityRatio,          !- Feature Name 28
  Double,                                 !- Feature Data Type 28
  0.006050392196571398,                   !- Feature Value 28
  EPWDesignCoolingWindspeed,              !- Feature Name 29
  Double,                                 !- Feature Data Type 29
  4.2000000000000002,                     !- Feature Value 29
  EPWDesignDailyTemperatureRange,         !- Feature Name 30
  Double,                                 !- Feature Data Type 30
  27.359999999999999,                     !- Feature Value 30
  EPWDesignDehumidDrybulb,                !- Feature Name 31
  Double,                                 !- Feature Data Type 31
  67.280000000000001,                     !- Feature Value 31
  EPWDesignDehumidHumidityRatio,          !- Feature Name 32
  Double,                                 !- Feature Data Type 32
  0.012295426899271008,                   !- Feature Value 32
  EPWDesignCoolingDirectNormal,           !- Feature Name 33
  Double,                                 !- Feature Data Type 33
  985,                                    !- Feature Value 33
  EPWDesignCoolingDiffuseHorizontal,      !- Feature Name 34
  Double,                                 !- Feature Data Type 34
  84;                                     !- Feature Value 34

OS:YearDescription,
  {e1113123-3350-4808-957a-0d343852e0c0}, !- Handle
  ,                                       !- Calendar Year
  Monday;                                 !- Day of Week for Start Day

OS:ClimateZones,
  {9e5d11fc-7422-45c6-8cfc-e912232c53fd}, !- Handle
  ,                                       !- Active Institution
  ,                                       !- Active Year
  ,                                       !- Climate Zone Institution Name 1
  ,                                       !- Climate Zone Document Name 1
  ,                                       !- Climate Zone Document Year 1
  ,                                       !- Climate Zone Value 1
  Building America,                       !- Climate Zone Institution Name 2
  ,                                       !- Climate Zone Document Name 2
  0,                                      !- Climate Zone Document Year 2
  Cold;                                   !- Climate Zone Value 2

OS:Site:WaterMainsTemperature,
  {040ecb2f-b6db-44e5-b2c6-94255d706f07}, !- Handle
  Correlation,                            !- Calculation Method
  ,                                       !- Temperature Schedule Name
  10.8753424657535,                       !- Annual Average Outdoor Air Temperature {C}
  23.1524007936508;                       !- Maximum Difference In Monthly Average Outdoor Air Temperatures {deltaC}

OS:RunPeriodControl:DaylightSavingTime,
  {6bb208e3-d697-482b-9ef6-65d717a2ccd1}, !- Handle
  4/7,                                    !- Start Date
  10/26;                                  !- End Date

OS:Site:GroundTemperature:Deep,
  {78d76fdb-2e88-4363-ba82-3c0078c75d65}, !- Handle
  10.8753424657535,                       !- January Deep Ground Temperature {C}
  10.8753424657535,                       !- February Deep Ground Temperature {C}
  10.8753424657535,                       !- March Deep Ground Temperature {C}
  10.8753424657535,                       !- April Deep Ground Temperature {C}
  10.8753424657535,                       !- May Deep Ground Temperature {C}
  10.8753424657535,                       !- June Deep Ground Temperature {C}
  10.8753424657535,                       !- July Deep Ground Temperature {C}
  10.8753424657535,                       !- August Deep Ground Temperature {C}
  10.8753424657535,                       !- September Deep Ground Temperature {C}
  10.8753424657535,                       !- October Deep Ground Temperature {C}
  10.8753424657535,                       !- November Deep Ground Temperature {C}
  10.8753424657535;                       !- December Deep Ground Temperature {C}

OS:ThermalZone,
  {5216842a-fa97-42cf-8da8-9870b28e210b}, !- Handle
  living zone,                            !- Name
  ,                                       !- Multiplier
  ,                                       !- Ceiling Height {m}
  ,                                       !- Volume {m3}
  ,                                       !- Floor Area {m2}
  ,                                       !- Zone Inside Convection Algorithm
  ,                                       !- Zone Outside Convection Algorithm
  ,                                       !- Zone Conditioning Equipment List Name
  {e721e451-dc2d-412b-86b1-41ee0991ced9}, !- Zone Air Inlet Port List
  {10e358d4-9cb5-4b79-9c4d-676ee59ac235}, !- Zone Air Exhaust Port List
  {1ab70dc6-66b7-4007-94d8-be7890053009}, !- Zone Air Node Name
  {e17e7f75-c17c-4f10-aef7-fa527ab73d59}, !- Zone Return Air Node Name
  ,                                       !- Primary Daylighting Control Name
  ,                                       !- Fraction of Zone Controlled by Primary Daylighting Control
  ,                                       !- Secondary Daylighting Control Name
  ,                                       !- Fraction of Zone Controlled by Secondary Daylighting Control
  ,                                       !- Illuminance Map Name
  ,                                       !- Group Rendering Name
  {d1e2f6e0-b42d-476e-8a5a-56d0a1fd0753}, !- Thermostat Name
  No;                                     !- Use Ideal Air Loads

OS:Node,
  {b649c83e-d5fa-45c3-99cf-3c939ef01779}, !- Handle
  Node 1,                                 !- Name
  {1ab70dc6-66b7-4007-94d8-be7890053009}, !- Inlet Port
  ;                                       !- Outlet Port

OS:Connection,
  {1ab70dc6-66b7-4007-94d8-be7890053009}, !- Handle
  {0221c1dd-f023-4fd5-834d-ddd221ecc5a8}, !- Name
  {5216842a-fa97-42cf-8da8-9870b28e210b}, !- Source Object
  11,                                     !- Outlet Port
  {b649c83e-d5fa-45c3-99cf-3c939ef01779}, !- Target Object
  2;                                      !- Inlet Port

OS:PortList,
  {e721e451-dc2d-412b-86b1-41ee0991ced9}, !- Handle
  {b744e239-aba9-46ec-8b90-c28195c77eb0}, !- Name
  {5216842a-fa97-42cf-8da8-9870b28e210b}, !- HVAC Component
  {8de400a6-3968-434e-9773-c67ed9014ab8}; !- Port 1

OS:PortList,
  {10e358d4-9cb5-4b79-9c4d-676ee59ac235}, !- Handle
  {b230df6a-2ca2-4ab3-89c3-f1c0bdb84bb1}, !- Name
  {5216842a-fa97-42cf-8da8-9870b28e210b}; !- HVAC Component

OS:Sizing:Zone,
  {917ea9df-5afb-400b-b7a1-e381e2467149}, !- Handle
  {5216842a-fa97-42cf-8da8-9870b28e210b}, !- Zone or ZoneList Name
  SupplyAirTemperature,                   !- Zone Cooling Design Supply Air Temperature Input Method
  14,                                     !- Zone Cooling Design Supply Air Temperature {C}
  11.11,                                  !- Zone Cooling Design Supply Air Temperature Difference {deltaC}
  SupplyAirTemperature,                   !- Zone Heating Design Supply Air Temperature Input Method
  40,                                     !- Zone Heating Design Supply Air Temperature {C}
  11.11,                                  !- Zone Heating Design Supply Air Temperature Difference {deltaC}
  0.0085,                                 !- Zone Cooling Design Supply Air Humidity Ratio {kg-H2O/kg-air}
  0.008,                                  !- Zone Heating Design Supply Air Humidity Ratio {kg-H2O/kg-air}
  ,                                       !- Zone Heating Sizing Factor
  ,                                       !- Zone Cooling Sizing Factor
  DesignDay,                              !- Cooling Design Air Flow Method
  ,                                       !- Cooling Design Air Flow Rate {m3/s}
  ,                                       !- Cooling Minimum Air Flow per Zone Floor Area {m3/s-m2}
  ,                                       !- Cooling Minimum Air Flow {m3/s}
  ,                                       !- Cooling Minimum Air Flow Fraction
  DesignDay,                              !- Heating Design Air Flow Method
  ,                                       !- Heating Design Air Flow Rate {m3/s}
  ,                                       !- Heating Maximum Air Flow per Zone Floor Area {m3/s-m2}
  ,                                       !- Heating Maximum Air Flow {m3/s}
  ,                                       !- Heating Maximum Air Flow Fraction
  ,                                       !- Design Zone Air Distribution Effectiveness in Cooling Mode
  ,                                       !- Design Zone Air Distribution Effectiveness in Heating Mode
  No,                                     !- Account for Dedicated Outdoor Air System
  NeutralSupplyAir,                       !- Dedicated Outdoor Air System Control Strategy
  autosize,                               !- Dedicated Outdoor Air Low Setpoint Temperature for Design {C}
  autosize;                               !- Dedicated Outdoor Air High Setpoint Temperature for Design {C}

OS:ZoneHVAC:EquipmentList,
  {2f9ec8d9-26f9-4452-b11b-1879f0841799}, !- Handle
  Zone HVAC Equipment List 1,             !- Name
  {5216842a-fa97-42cf-8da8-9870b28e210b}, !- Thermal Zone
  {3968f816-4d11-464b-9a51-d42c068d00ae}, !- Zone Equipment 1
  1,                                      !- Zone Equipment Cooling Sequence 1
  1;                                      !- Zone Equipment Heating or No-Load Sequence 1

OS:ThermalZone,
  {c39cae64-4763-4775-8a92-b5a0de370af6}, !- Handle
  garage zone,                            !- Name
  ,                                       !- Multiplier
  ,                                       !- Ceiling Height {m}
  ,                                       !- Volume {m3}
  ,                                       !- Floor Area {m2}
  ,                                       !- Zone Inside Convection Algorithm
  ,                                       !- Zone Outside Convection Algorithm
  ,                                       !- Zone Conditioning Equipment List Name
  {e83e0e38-1c68-4551-87c5-2181a6fa17d1}, !- Zone Air Inlet Port List
  {87b5ca80-5eb7-43d7-b71b-2d1487c7b6ed}, !- Zone Air Exhaust Port List
  {3f6c6f7d-dfea-43cb-a71a-df6522534210}, !- Zone Air Node Name
  ,                                       !- Zone Return Air Node Name
  ,                                       !- Primary Daylighting Control Name
  ,                                       !- Fraction of Zone Controlled by Primary Daylighting Control
  ,                                       !- Secondary Daylighting Control Name
  ,                                       !- Fraction of Zone Controlled by Secondary Daylighting Control
  ,                                       !- Illuminance Map Name
  ,                                       !- Group Rendering Name
  ,                                       !- Thermostat Name
  No;                                     !- Use Ideal Air Loads

OS:Node,
  {37c805c7-5d11-46e2-96e5-8bf8393ddc59}, !- Handle
  Node 2,                                 !- Name
  {3f6c6f7d-dfea-43cb-a71a-df6522534210}, !- Inlet Port
  ;                                       !- Outlet Port

OS:Connection,
  {3f6c6f7d-dfea-43cb-a71a-df6522534210}, !- Handle
  {c6e26f8f-4d47-42ee-bfba-084339d15c94}, !- Name
  {c39cae64-4763-4775-8a92-b5a0de370af6}, !- Source Object
  11,                                     !- Outlet Port
  {37c805c7-5d11-46e2-96e5-8bf8393ddc59}, !- Target Object
  2;                                      !- Inlet Port

OS:PortList,
  {e83e0e38-1c68-4551-87c5-2181a6fa17d1}, !- Handle
  {a7f3c312-bc0b-4f35-a4b4-db41b30efc15}, !- Name
  {c39cae64-4763-4775-8a92-b5a0de370af6}; !- HVAC Component

OS:PortList,
  {87b5ca80-5eb7-43d7-b71b-2d1487c7b6ed}, !- Handle
  {33f67692-de54-40a4-bb94-44d6ccc55468}, !- Name
  {c39cae64-4763-4775-8a92-b5a0de370af6}; !- HVAC Component

OS:Sizing:Zone,
  {14059f5c-e980-4816-b313-874fdf71753e}, !- Handle
  {c39cae64-4763-4775-8a92-b5a0de370af6}, !- Zone or ZoneList Name
  SupplyAirTemperature,                   !- Zone Cooling Design Supply Air Temperature Input Method
  14,                                     !- Zone Cooling Design Supply Air Temperature {C}
  11.11,                                  !- Zone Cooling Design Supply Air Temperature Difference {deltaC}
  SupplyAirTemperature,                   !- Zone Heating Design Supply Air Temperature Input Method
  40,                                     !- Zone Heating Design Supply Air Temperature {C}
  11.11,                                  !- Zone Heating Design Supply Air Temperature Difference {deltaC}
  0.0085,                                 !- Zone Cooling Design Supply Air Humidity Ratio {kg-H2O/kg-air}
  0.008,                                  !- Zone Heating Design Supply Air Humidity Ratio {kg-H2O/kg-air}
  ,                                       !- Zone Heating Sizing Factor
  ,                                       !- Zone Cooling Sizing Factor
  DesignDay,                              !- Cooling Design Air Flow Method
  ,                                       !- Cooling Design Air Flow Rate {m3/s}
  ,                                       !- Cooling Minimum Air Flow per Zone Floor Area {m3/s-m2}
  ,                                       !- Cooling Minimum Air Flow {m3/s}
  ,                                       !- Cooling Minimum Air Flow Fraction
  DesignDay,                              !- Heating Design Air Flow Method
  ,                                       !- Heating Design Air Flow Rate {m3/s}
  ,                                       !- Heating Maximum Air Flow per Zone Floor Area {m3/s-m2}
  ,                                       !- Heating Maximum Air Flow {m3/s}
  ,                                       !- Heating Maximum Air Flow Fraction
  ,                                       !- Design Zone Air Distribution Effectiveness in Cooling Mode
  ,                                       !- Design Zone Air Distribution Effectiveness in Heating Mode
  No,                                     !- Account for Dedicated Outdoor Air System
  NeutralSupplyAir,                       !- Dedicated Outdoor Air System Control Strategy
  autosize,                               !- Dedicated Outdoor Air Low Setpoint Temperature for Design {C}
  autosize;                               !- Dedicated Outdoor Air High Setpoint Temperature for Design {C}

OS:ZoneHVAC:EquipmentList,
  {218a4f1e-5a0f-46cf-ba41-a9aad1000aae}, !- Handle
  Zone HVAC Equipment List 2,             !- Name
  {c39cae64-4763-4775-8a92-b5a0de370af6}; !- Thermal Zone

OS:Space,
  {1dac531f-922a-4b39-a7f9-e7a318b3d693}, !- Handle
  garage space,                           !- Name
  {164966bf-da41-41dd-86c5-170e3b1e7f60}, !- Space Type Name
  ,                                       !- Default Construction Set Name
  ,                                       !- Default Schedule Set Name
  -0,                                     !- Direction of Relative North {deg}
  0,                                      !- X Origin {m}
  0,                                      !- Y Origin {m}
  0,                                      !- Z Origin {m}
  ,                                       !- Building Story Name
  {c39cae64-4763-4775-8a92-b5a0de370af6}; !- Thermal Zone Name

OS:Surface,
  {ce4829f6-8fd1-4196-b975-3d3ab6ab9a8b}, !- Handle
  Surface 1,                              !- Name
  Floor,                                  !- Surface Type
  {cece6a5f-9425-4937-9377-d85b1b802859}, !- Construction Name
  {1dac531f-922a-4b39-a7f9-e7a318b3d693}, !- Space Name
  Foundation,                             !- Outside Boundary Condition
  {f6f674d2-9895-4225-9aaa-c2b658acfbdf}, !- Outside Boundary Condition Object
  NoSun,                                  !- Sun Exposure
  NoWind,                                 !- Wind Exposure
  ,                                       !- View Factor to Ground
  ,                                       !- Number of Vertices
  7.6199999993904, -3.048, 0,             !- X,Y,Z Vertex 1 {m}
  7.6199999993904, 3.048, 0,              !- X,Y,Z Vertex 2 {m}
  11.2775999993904, 3.048, 0,             !- X,Y,Z Vertex 3 {m}
  11.2775999993904, -3.048, 0;            !- X,Y,Z Vertex 4 {m}

OS:Surface,
  {9f00a16f-6689-4310-8c7d-8c969cfc8239}, !- Handle
  Surface 2,                              !- Name
  Wall,                                   !- Surface Type
  {5a511083-7326-492f-a835-197182425bbe}, !- Construction Name
  {1dac531f-922a-4b39-a7f9-e7a318b3d693}, !- Space Name
  Surface,                                !- Outside Boundary Condition
  {088aa93f-564e-4b24-bbf8-d644191244f7}, !- Outside Boundary Condition Object
  NoSun,                                  !- Sun Exposure
  NoWind,                                 !- Wind Exposure
  ,                                       !- View Factor to Ground
  ,                                       !- Number of Vertices
  7.6199999993904, 3.048, 2.4384,         !- X,Y,Z Vertex 1 {m}
  7.6199999993904, 3.048, 0,              !- X,Y,Z Vertex 2 {m}
  7.6199999993904, 0, 0,                  !- X,Y,Z Vertex 3 {m}
  7.6199999993904, 0, 2.4384;             !- X,Y,Z Vertex 4 {m}

OS:Surface,
  {370baa91-5c46-4615-a152-db451fd46839}, !- Handle
  Surface 3,                              !- Name
  Wall,                                   !- Surface Type
  {5a511083-7326-492f-a835-197182425bbe}, !- Construction Name
  {1dac531f-922a-4b39-a7f9-e7a318b3d693}, !- Space Name
  Surface,                                !- Outside Boundary Condition
  {a26ceed0-decd-4945-b454-e0fac92b1b0f}, !- Outside Boundary Condition Object
  NoSun,                                  !- Sun Exposure
  NoWind,                                 !- Wind Exposure
  ,                                       !- View Factor to Ground
  ,                                       !- Number of Vertices
  11.2775999993904, 3.048, 2.4384,        !- X,Y,Z Vertex 1 {m}
  11.2775999993904, 3.048, 0,             !- X,Y,Z Vertex 2 {m}
  7.6199999993904, 3.048, 0,              !- X,Y,Z Vertex 3 {m}
  7.6199999993904, 3.048, 2.4384;         !- X,Y,Z Vertex 4 {m}
