!- NOTE: Auto-generated from /test/osw_files/SFD_HVACSizing_Equip_Dehumidifier_Fixed_Atlanta.osw

OS:Version,
  {48728e5b-436f-4e6d-81e3-0caa58611f87}, !- Handle
  2.6.0;                                  !- Version Identifier

OS:Building,
  {79801669-ef83-44a1-8d2e-9cfd69a3ab02}, !- Handle
  Building 1,                             !- Name
  ,                                       !- Building Sector Type
  22.5,                                   !- North Axis {deg}
  ,                                       !- Nominal Floor to Floor Height {m}
  ,                                       !- Space Type Name
  ,                                       !- Default Construction Set Name
  ,                                       !- Default Schedule Set Name
  4,                                      !- Standards Number of Stories
  3,                                      !- Standards Number of Above Ground Stories
  singlefamilydetached,                   !- Standards Building Type
  1;                                      !- Standards Number of Living Units

OS:Facility,
  {d00d81b5-2142-4cc9-b236-a01a237ed0a8}; !- Handle

OS:Site,
  {3df546ec-213e-4366-ba30-0d7d46fb4f04}, !- Handle
  Atlanta Hartsfield Intl Ap_GA_USA,      !- Name
  33.63,                                  !- Latitude {deg}
  -84.43,                                 !- Longitude {deg}
  -5,                                     !- Time Zone {hr}
  308,                                    !- Elevation {m}
  Suburbs;                                !- Terrain

OS:SimulationControl,
  {07a595ec-5072-4ba7-b5db-5635214ac5b3}, !- Handle
  ,                                       !- Do Zone Sizing Calculation
  ,                                       !- Do System Sizing Calculation
  ,                                       !- Do Plant Sizing Calculation
  No;                                     !- Run Simulation for Sizing Periods

OS:Sizing:Parameters,
  {88aaec61-f750-4597-bbe2-c2e32c723577}, !- Handle
  1.25,                                   !- Heating Sizing Factor
  1.15;                                   !- Cooling Sizing Factor

OS:Timestep,
  {3b2c3345-238b-44a9-98fc-bbe157ada3bc}, !- Handle
  6;                                      !- Number of Timesteps per Hour

OS:ShadowCalculation,
  {e4d9db65-efd6-4b42-ad5f-123fb1b79b97}, !- Handle
  20,                                     !- Calculation Frequency
  200;                                    !- Maximum Figures in Shadow Overlap Calculations

OS:HeatBalanceAlgorithm,
  {66c64f7f-f993-46b6-b598-1a9e08f874ad}, !- Handle
  ConductionTransferFunction,             !- Algorithm
  200;                                    !- Surface Temperature Upper Limit {C}

OS:RunPeriod,
  {c0fdda1b-b750-4c01-9dbf-030376c823b7}, !- Handle
  Run Period 1,                           !- Name
  1,                                      !- Begin Month
  1,                                      !- Begin Day of Month
  12,                                     !- End Month
  31,                                     !- End Day of Month
  ,                                       !- Use Weather File Holidays and Special Days
  ,                                       !- Use Weather File Daylight Saving Period
  ,                                       !- Apply Weekend Holiday Rule
  ,                                       !- Use Weather File Rain Indicators
  ,                                       !- Use Weather File Snow Indicators
  ;                                       !- Number of Times Runperiod to be Repeated

OS:LifeCycleCost:Parameters,
  {2b4d7728-0a83-4012-b73a-e9dc581e2ca8}, !- Handle
  ,                                       !- Analysis Type
  ,                                       !- Discounting Convention
  ,                                       !- Inflation Approach
  ,                                       !- Real Discount Rate
  ,                                       !- Nominal Discount Rate
  ,                                       !- Inflation
  ,                                       !- Base Date Month
  ,                                       !- Base Date Year
  ,                                       !- Service Date Month
  ,                                       !- Service Date Year
  ;                                       !- Length of Study Period in Years

OS:SurfaceConvectionAlgorithm:Outside,
  {2462f6e5-3b71-4b0c-b106-6f84b97c7308}, !- Handle
  DOE-2;                                  !- Algorithm

OS:SurfaceConvectionAlgorithm:Inside,
  {33cabfed-8cfe-4bf7-8a38-6f7f2f11de48}, !- Handle
  TARP;                                   !- Algorithm

OS:ZoneCapacitanceMultiplier:ResearchSpecial,
  {98be7bb7-e67d-47d3-96f9-0712a902d9cf}, !- Handle
  ,                                       !- Temperature Capacity Multiplier
  15,                                     !- Humidity Capacity Multiplier
  ;                                       !- Carbon Dioxide Capacity Multiplier

OS:WeatherFile,
  {0630a23b-3b37-410a-89ae-b7aa1688c46b}, !- Handle
  Atlanta Hartsfield Intl Ap,             !- City
  GA,                                     !- State Province Region
  USA,                                    !- Country
  TMY3,                                   !- Data Source
  722190,                                 !- WMO Number
  33.63,                                  !- Latitude {deg}
  -84.43,                                 !- Longitude {deg}
  -5,                                     !- Time Zone {hr}
  308,                                    !- Elevation {m}
  file:../tests/USA_GA_Atlanta-Hartsfield-Jackson.Intl.AP.722190_TMY3.epw, !- Url
  F0AA8FA7;                               !- Checksum

OS:AdditionalProperties,
  {1ef08d68-117c-4994-acd0-1dc5d801ffeb}, !- Handle
  {0630a23b-3b37-410a-89ae-b7aa1688c46b}, !- Object Name
  EPWHeaderCity,                          !- Feature Name 1
  String,                                 !- Feature Data Type 1
  Atlanta Hartsfield Intl Ap,             !- Feature Value 1
  EPWHeaderState,                         !- Feature Name 2
  String,                                 !- Feature Data Type 2
  GA,                                     !- Feature Value 2
  EPWHeaderCountry,                       !- Feature Name 3
  String,                                 !- Feature Data Type 3
  USA,                                    !- Feature Value 3
  EPWHeaderDataSource,                    !- Feature Name 4
  String,                                 !- Feature Data Type 4
  TMY3,                                   !- Feature Value 4
  EPWHeaderStation,                       !- Feature Name 5
  String,                                 !- Feature Data Type 5
  722190,                                 !- Feature Value 5
  EPWHeaderLatitude,                      !- Feature Name 6
  Double,                                 !- Feature Data Type 6
  33.630000000000003,                     !- Feature Value 6
  EPWHeaderLongitude,                     !- Feature Name 7
  Double,                                 !- Feature Data Type 7
  -84.430000000000007,                    !- Feature Value 7
  EPWHeaderTimezone,                      !- Feature Name 8
  Double,                                 !- Feature Data Type 8
  -5,                                     !- Feature Value 8
  EPWHeaderAltitude,                      !- Feature Name 9
  Double,                                 !- Feature Data Type 9
  1010.498687664042,                      !- Feature Value 9
  EPWHeaderLocalPressure,                 !- Feature Name 10
  Double,                                 !- Feature Data Type 10
  0.96349656938889539,                    !- Feature Value 10
  EPWHeaderRecordsPerHour,                !- Feature Name 11
  Double,                                 !- Feature Data Type 11
  1,                                      !- Feature Value 11
  EPWDataAnnualAvgDrybulb,                !- Feature Name 12
  Double,                                 !- Feature Data Type 12
  61.975219178082227,                     !- Feature Value 12
  EPWDataAnnualMinDrybulb,                !- Feature Name 13
  Double,                                 !- Feature Data Type 13
  8.9599999999999973,                     !- Feature Value 13
  EPWDataAnnualMaxDrybulb,                !- Feature Name 14
  Double,                                 !- Feature Data Type 14
  98.060000000000002,                     !- Feature Value 14
  EPWDataCDD50F,                          !- Feature Name 15
  Double,                                 !- Feature Data Type 15
  5167.4549999999999,                     !- Feature Value 15
  EPWDataCDD65F,                          !- Feature Name 16
  Double,                                 !- Feature Data Type 16
  1722.3449999999996,                     !- Feature Value 16
  EPWDataHDD50F,                          !- Feature Name 17
  Double,                                 !- Feature Data Type 17
  796.49999999999966,                     !- Feature Value 17
  EPWDataHDD65F,                          !- Feature Name 18
  Double,                                 !- Feature Data Type 18
  2826.3900000000008,                     !- Feature Value 18
  EPWDataAnnualAvgWindspeed,              !- Feature Name 19
  Double,                                 !- Feature Data Type 19
  4.0382762557073244,                     !- Feature Value 19
  EPWDataMonthlyAvgDrybulbs,              !- Feature Name 20
  String,                                 !- Feature Data Type 20
  39.14217741935483&#4446.29312500000001&#4456.77129032258064&#4462.98849999999998&#4469.51064516129031&#4476.63525000000004&#4478.91685483870964&#4479.78104838709672&#4472.54099999999995&#4460.83895161290323&#4453.48324999999999&#4445.85540322580647, !- Feature Value 20
  EPWDataGroundMonthlyTemps,              !- Feature Name 21
  String,                                 !- Feature Data Type 21
  54.677026693263485&#4451.56886666200381&#4451.319954060175576&#4452.794934810798&#4458.716160600660885&#4464.60980280887844&#4469.7192756221221&#4472.95600098438916&#4473.23097858198247&#4470.59844651906309&#4465.61926826240398&#4459.90641899190797, !- Feature Value 21
  EPWDataWSF,                             !- Feature Name 22
  Double,                                 !- Feature Data Type 22
  0.46000000000000002,                    !- Feature Value 22
  EPWDataMonthlyAvgDailyHighDrybulbs,     !- Feature Name 23
  String,                                 !- Feature Data Type 23
  47.23032258064516&#4457.83642857142857&#4466.85032258064516&#4474.78&#4480.28064516129032&#4488.19600000000001&#4489.07741935483871&#4489.20516129032258&#4481.518&#4471.15870967741935&#4465.69&#4455.800645161290326, !- Feature Value 23
  EPWDataMonthlyAvgDailyLowDrybulbs,      !- Feature Name 24
  String,                                 !- Feature Data Type 24
  31.065161290322582&#4435.863571428571426&#4446.69032258064516&#4451.236000000000004&#4459.22064516129032&#4465.924&#4469.73612903225808&#4472.19806451612905&#4464.46600000000001&#4450.88258064516128&#4442.818&#4437.09806451612903, !- Feature Value 24
  EPWDesignHeatingDrybulb,                !- Feature Name 25
  Double,                                 !- Feature Data Type 25
  25.699999999999999,                     !- Feature Value 25
  EPWDesignHeatingWindspeed,              !- Feature Name 26
  Double,                                 !- Feature Data Type 26
  10.699999999999999,                     !- Feature Value 26
  EPWDesignCoolingDrybulb,                !- Feature Name 27
  Double,                                 !- Feature Data Type 27
  91.400000000000006,                     !- Feature Value 27
  EPWDesignCoolingWetbulb,                !- Feature Name 28
  Double,                                 !- Feature Data Type 28
  73.939999999999998,                     !- Feature Value 28
  EPWDesignCoolingHumidityRatio,          !- Feature Name 29
  Double,                                 !- Feature Data Type 29
  0.014532714185157248,                   !- Feature Value 29
  EPWDesignCoolingWindspeed,              !- Feature Name 30
  Double,                                 !- Feature Data Type 30
  4,                                      !- Feature Value 30
  EPWDesignDailyTemperatureRange,         !- Feature Name 31
  Double,                                 !- Feature Data Type 31
  17.100000000000001,                     !- Feature Value 31
  EPWDesignDehumidDrybulb,                !- Feature Name 32
  Double,                                 !- Feature Data Type 32
  79.340000000000003,                     !- Feature Value 32
  EPWDesignDehumidHumidityRatio,          !- Feature Name 33
  Double,                                 !- Feature Data Type 33
  0.017860837341798077,                   !- Feature Value 33
  EPWDesignCoolingDirectNormal,           !- Feature Name 34
  Double,                                 !- Feature Data Type 34
  908,                                    !- Feature Value 34
  EPWDesignCoolingDiffuseHorizontal,      !- Feature Name 35
  Double,                                 !- Feature Data Type 35
  120;                                    !- Feature Value 35

OS:YearDescription,
  {c2e6a1e8-57fb-45f4-afb0-03525bd141f4}, !- Handle
  ,                                       !- Calendar Year
  Monday;                                 !- Day of Week for Start Day

OS:ClimateZones,
  {b0407825-8e69-427b-968f-ae354f866375}, !- Handle
  ,                                       !- Active Institution
  ,                                       !- Active Year
  ,                                       !- Climate Zone Institution Name 1
  ,                                       !- Climate Zone Document Name 1
  ,                                       !- Climate Zone Document Year 1
  ,                                       !- Climate Zone Value 1
  Building America,                       !- Climate Zone Institution Name 2
  ,                                       !- Climate Zone Document Name 2
  0,                                      !- Climate Zone Document Year 2
  Mixed-Humid;                            !- Climate Zone Value 2

OS:Site:WaterMainsTemperature,
  {2027ff8c-9674-45ab-95d3-663f18694967}, !- Handle
  Correlation,                            !- Calculation Method
  ,                                       !- Temperature Schedule Name
  16.652899543379,                        !- Annual Average Outdoor Air Temperature {C}
  22.5771505376344;                       !- Maximum Difference In Monthly Average Outdoor Air Temperatures {deltaC}

OS:RunPeriodControl:DaylightSavingTime,
  {54945eb4-dd0c-430a-a17c-1d71f25b7e9d}, !- Handle
  4/7,                                    !- Start Date
  10/26;                                  !- End Date

OS:Site:GroundTemperature:Deep,
  {87d499d4-56ce-4b13-878b-e7fb256489ac}, !- Handle
  16.652899543379,                        !- January Deep Ground Temperature {C}
  16.652899543379,                        !- February Deep Ground Temperature {C}
  16.652899543379,                        !- March Deep Ground Temperature {C}
  16.652899543379,                        !- April Deep Ground Temperature {C}
  16.652899543379,                        !- May Deep Ground Temperature {C}
  16.652899543379,                        !- June Deep Ground Temperature {C}
  16.652899543379,                        !- July Deep Ground Temperature {C}
  16.652899543379,                        !- August Deep Ground Temperature {C}
  16.652899543379,                        !- September Deep Ground Temperature {C}
  16.652899543379,                        !- October Deep Ground Temperature {C}
  16.652899543379,                        !- November Deep Ground Temperature {C}
  16.652899543379;                        !- December Deep Ground Temperature {C}

OS:ThermalZone,
  {a5fa2f47-9f57-4079-9bbb-3760374eb147}, !- Handle
  living zone,                            !- Name
  ,                                       !- Multiplier
  ,                                       !- Ceiling Height {m}
  ,                                       !- Volume {m3}
  ,                                       !- Floor Area {m2}
  ,                                       !- Zone Inside Convection Algorithm
  ,                                       !- Zone Outside Convection Algorithm
  ,                                       !- Zone Conditioning Equipment List Name
  {28191332-1346-403c-ae09-a9e7ef38b246}, !- Zone Air Inlet Port List
  {d1cf592e-248b-4dad-b155-a8277be01e77}, !- Zone Air Exhaust Port List
  {45d7428d-ad8b-4d2b-bc52-ab608d3b9c02}, !- Zone Air Node Name
  ,                                       !- Zone Return Air Node Name
  ,                                       !- Primary Daylighting Control Name
  ,                                       !- Fraction of Zone Controlled by Primary Daylighting Control
  ,                                       !- Secondary Daylighting Control Name
  ,                                       !- Fraction of Zone Controlled by Secondary Daylighting Control
  ,                                       !- Illuminance Map Name
  ,                                       !- Group Rendering Name
  ,                                       !- Thermostat Name
  No,                                     !- Use Ideal Air Loads
  {0e165b5a-86c6-4cd5-9a8f-abb978d09ea1}; !- Humidistat Name

OS:Node,
  {5245f602-1063-4c3f-8988-d1d26babc6c9}, !- Handle
  Node 1,                                 !- Name
  {45d7428d-ad8b-4d2b-bc52-ab608d3b9c02}, !- Inlet Port
  ;                                       !- Outlet Port

OS:Connection,
  {45d7428d-ad8b-4d2b-bc52-ab608d3b9c02}, !- Handle
  {d25fa809-fb7e-40d7-be4d-adf37da46ef8}, !- Name
  {a5fa2f47-9f57-4079-9bbb-3760374eb147}, !- Source Object
  11,                                     !- Outlet Port
  {5245f602-1063-4c3f-8988-d1d26babc6c9}, !- Target Object
  2;                                      !- Inlet Port

OS:PortList,
  {28191332-1346-403c-ae09-a9e7ef38b246}, !- Handle
  {a2a397b0-11f1-4c22-a7a1-15b9817a8bb4}, !- Name
  {a5fa2f47-9f57-4079-9bbb-3760374eb147}, !- HVAC Component
  {bdf64689-04e2-40d5-a433-38e245fd1f3e}; !- Port 1

OS:PortList,
  {d1cf592e-248b-4dad-b155-a8277be01e77}, !- Handle
  {a20d9aa3-13a4-4c1f-9ee4-87171bd20f83}, !- Name
  {a5fa2f47-9f57-4079-9bbb-3760374eb147}, !- HVAC Component
  {df4ab8d9-6a17-4a3e-8b74-a79331140c7e}; !- Port 1

OS:Sizing:Zone,
  {405b4dba-211d-4d5a-bdd8-9e40e2de18cb}, !- Handle
  {a5fa2f47-9f57-4079-9bbb-3760374eb147}, !- Zone or ZoneList Name
  SupplyAirTemperature,                   !- Zone Cooling Design Supply Air Temperature Input Method
  14,                                     !- Zone Cooling Design Supply Air Temperature {C}
  11.11,                                  !- Zone Cooling Design Supply Air Temperature Difference {deltaC}
  SupplyAirTemperature,                   !- Zone Heating Design Supply Air Temperature Input Method
  40,                                     !- Zone Heating Design Supply Air Temperature {C}
  11.11,                                  !- Zone Heating Design Supply Air Temperature Difference {deltaC}
  0.0085,                                 !- Zone Cooling Design Supply Air Humidity Ratio {kg-H2O/kg-air}
  0.008,                                  !- Zone Heating Design Supply Air Humidity Ratio {kg-H2O/kg-air}
  ,                                       !- Zone Heating Sizing Factor
  ,                                       !- Zone Cooling Sizing Factor
  DesignDay,                              !- Cooling Design Air Flow Method
  ,                                       !- Cooling Design Air Flow Rate {m3/s}
  ,                                       !- Cooling Minimum Air Flow per Zone Floor Area {m3/s-m2}
  ,                                       !- Cooling Minimum Air Flow {m3/s}
  ,                                       !- Cooling Minimum Air Flow Fraction
  DesignDay,                              !- Heating Design Air Flow Method
  ,                                       !- Heating Design Air Flow Rate {m3/s}
  ,                                       !- Heating Maximum Air Flow per Zone Floor Area {m3/s-m2}
  ,                                       !- Heating Maximum Air Flow {m3/s}
  ,                                       !- Heating Maximum Air Flow Fraction
  ,                                       !- Design Zone Air Distribution Effectiveness in Cooling Mode
  ,                                       !- Design Zone Air Distribution Effectiveness in Heating Mode
  No,                                     !- Account for Dedicated Outdoor Air System
  NeutralSupplyAir,                       !- Dedicated Outdoor Air System Control Strategy
  autosize,                               !- Dedicated Outdoor Air Low Setpoint Temperature for Design {C}
  autosize;                               !- Dedicated Outdoor Air High Setpoint Temperature for Design {C}

OS:ZoneHVAC:EquipmentList,
  {eb9bd6a1-c93f-465b-b7e4-6bc91c914c21}, !- Handle
  Zone HVAC Equipment List 1,             !- Name
  {a5fa2f47-9f57-4079-9bbb-3760374eb147}, !- Thermal Zone
  {fab14f5b-1902-4032-8377-5b10e701bd0f}, !- Zone Equipment 1
  1,                                      !- Zone Equipment Cooling Sequence 1
  1;                                      !- Zone Equipment Heating or No-Load Sequence 1

OS:ThermalZone,
  {6f831ffc-99e2-43a5-b912-c439ceb63bd8}, !- Handle
  garage zone,                            !- Name
  ,                                       !- Multiplier
  ,                                       !- Ceiling Height {m}
  ,                                       !- Volume {m3}
  ,                                       !- Floor Area {m2}
  ,                                       !- Zone Inside Convection Algorithm
  ,                                       !- Zone Outside Convection Algorithm
  ,                                       !- Zone Conditioning Equipment List Name
  {6544a0f4-3035-4e25-a670-d4dd43b39818}, !- Zone Air Inlet Port List
  {1bcd8f53-5c83-4022-b821-4b53c23ba004}, !- Zone Air Exhaust Port List
  {4e7934c1-6fe3-44cb-92bc-987bc0ece8b9}, !- Zone Air Node Name
  ,                                       !- Zone Return Air Node Name
  ,                                       !- Primary Daylighting Control Name
  ,                                       !- Fraction of Zone Controlled by Primary Daylighting Control
  ,                                       !- Secondary Daylighting Control Name
  ,                                       !- Fraction of Zone Controlled by Secondary Daylighting Control
  ,                                       !- Illuminance Map Name
  ,                                       !- Group Rendering Name
  ,                                       !- Thermostat Name
  No;                                     !- Use Ideal Air Loads

OS:Node,
  {d5d56a79-7d45-40be-a636-57cde7148c37}, !- Handle
  Node 2,                                 !- Name
  {4e7934c1-6fe3-44cb-92bc-987bc0ece8b9}, !- Inlet Port
  ;                                       !- Outlet Port

OS:Connection,
  {4e7934c1-6fe3-44cb-92bc-987bc0ece8b9}, !- Handle
  {9a0f4003-7943-4a55-a6a9-a7204f662c44}, !- Name
  {6f831ffc-99e2-43a5-b912-c439ceb63bd8}, !- Source Object
  11,                                     !- Outlet Port
  {d5d56a79-7d45-40be-a636-57cde7148c37}, !- Target Object
  2;                                      !- Inlet Port

OS:PortList,
  {6544a0f4-3035-4e25-a670-d4dd43b39818}, !- Handle
  {4597967b-2787-4e73-a0c7-653994474c32}, !- Name
  {6f831ffc-99e2-43a5-b912-c439ceb63bd8}; !- HVAC Component

OS:PortList,
  {1bcd8f53-5c83-4022-b821-4b53c23ba004}, !- Handle
  {d24a8935-0d36-4527-acdd-d15f5edf655e}, !- Name
  {6f831ffc-99e2-43a5-b912-c439ceb63bd8}; !- HVAC Component

OS:Sizing:Zone,
  {bb794859-2294-4210-98c3-4b38dff31356}, !- Handle
  {6f831ffc-99e2-43a5-b912-c439ceb63bd8}, !- Zone or ZoneList Name
  SupplyAirTemperature,                   !- Zone Cooling Design Supply Air Temperature Input Method
  14,                                     !- Zone Cooling Design Supply Air Temperature {C}
  11.11,                                  !- Zone Cooling Design Supply Air Temperature Difference {deltaC}
  SupplyAirTemperature,                   !- Zone Heating Design Supply Air Temperature Input Method
  40,                                     !- Zone Heating Design Supply Air Temperature {C}
  11.11,                                  !- Zone Heating Design Supply Air Temperature Difference {deltaC}
  0.0085,                                 !- Zone Cooling Design Supply Air Humidity Ratio {kg-H2O/kg-air}
  0.008,                                  !- Zone Heating Design Supply Air Humidity Ratio {kg-H2O/kg-air}
  ,                                       !- Zone Heating Sizing Factor
  ,                                       !- Zone Cooling Sizing Factor
  DesignDay,                              !- Cooling Design Air Flow Method
  ,                                       !- Cooling Design Air Flow Rate {m3/s}
  ,                                       !- Cooling Minimum Air Flow per Zone Floor Area {m3/s-m2}
  ,                                       !- Cooling Minimum Air Flow {m3/s}
  ,                                       !- Cooling Minimum Air Flow Fraction
  DesignDay,                              !- Heating Design Air Flow Method
  ,                                       !- Heating Design Air Flow Rate {m3/s}
  ,                                       !- Heating Maximum Air Flow per Zone Floor Area {m3/s-m2}
  ,                                       !- Heating Maximum Air Flow {m3/s}
  ,                                       !- Heating Maximum Air Flow Fraction
  ,                                       !- Design Zone Air Distribution Effectiveness in Cooling Mode
  ,                                       !- Design Zone Air Distribution Effectiveness in Heating Mode
  No,                                     !- Account for Dedicated Outdoor Air System
  NeutralSupplyAir,                       !- Dedicated Outdoor Air System Control Strategy
  autosize,                               !- Dedicated Outdoor Air Low Setpoint Temperature for Design {C}
  autosize;                               !- Dedicated Outdoor Air High Setpoint Temperature for Design {C}

OS:ZoneHVAC:EquipmentList,
  {2b16b2f5-80cd-4ec1-bd19-910296a8543d}, !- Handle
  Zone HVAC Equipment List 2,             !- Name
  {6f831ffc-99e2-43a5-b912-c439ceb63bd8}; !- Thermal Zone

OS:Space,
  {46e9bdb9-f2bf-4a14-8eee-14b0a5bf0624}, !- Handle
  garage space,                           !- Name
  {805eb919-158d-45b5-828c-7e0fd137ee48}, !- Space Type Name
  ,                                       !- Default Construction Set Name
  ,                                       !- Default Schedule Set Name
  -0,                                     !- Direction of Relative North {deg}
  0,                                      !- X Origin {m}
  0,                                      !- Y Origin {m}
  0,                                      !- Z Origin {m}
  ,                                       !- Building Story Name
  {6f831ffc-99e2-43a5-b912-c439ceb63bd8}; !- Thermal Zone Name

OS:Surface,
  {d23f4daa-dfe4-4b3a-9867-3d0b95e1bdee}, !- Handle
  Surface 1,                              !- Name
  Floor,                                  !- Surface Type
  {ed59d42f-e761-4f07-8f2f-1e957f44c9a1}, !- Construction Name
  {46e9bdb9-f2bf-4a14-8eee-14b0a5bf0624}, !- Space Name
  Foundation,                             !- Outside Boundary Condition
  {dbf056a7-ce7b-4b2e-bf35-c93b91f1f613}, !- Outside Boundary Condition Object
  NoSun,                                  !- Sun Exposure
  NoWind,                                 !- Wind Exposure
  ,                                       !- View Factor to Ground
  ,                                       !- Number of Vertices
  7.6199999993904, -3.048, 0,             !- X,Y,Z Vertex 1 {m}
  7.6199999993904, 3.048, 0,              !- X,Y,Z Vertex 2 {m}
  11.2775999993904, 3.048, 0,             !- X,Y,Z Vertex 3 {m}
  11.2775999993904, -3.048, 0;            !- X,Y,Z Vertex 4 {m}

OS:Surface,
  {1cc7b83f-86e1-4346-9bc7-1294d93e8ffb}, !- Handle
  Surface 2,                              !- Name
  Wall,                                   !- Surface Type
  {7ca1dd6b-c0cb-4fa9-8396-46c24a1daf01}, !- Construction Name
  {46e9bdb9-f2bf-4a14-8eee-14b0a5bf0624}, !- Space Name
  Surface,                                !- Outside Boundary Condition
  {1b02f1de-e8a9-4c4d-b844-737666e8c2fb}, !- Outside Boundary Condition Object
  NoSun,                                  !- Sun Exposure
  NoWind,                                 !- Wind Exposure
  ,                                       !- View Factor to Ground
  ,                                       !- Number of Vertices
  7.6199999993904, 3.048, 2.4384,         !- X,Y,Z Vertex 1 {m}
  7.6199999993904, 3.048, 0,              !- X,Y,Z Vertex 2 {m}
  7.6199999993904, 0, 0,                  !- X,Y,Z Vertex 3 {m}
  7.6199999993904, 0, 2.4384;             !- X,Y,Z Vertex 4 {m}

OS:Surface,
  {dcbd30d4-d47e-46bb-b1b3-a4b9eb291977}, !- Handle
  Surface 3,                              !- Name
  Wall,                                   !- Surface Type
  {7ca1dd6b-c0cb-4fa9-8396-46c24a1daf01}, !- Construction Name
  {46e9bdb9-f2bf-4a14-8eee-14b0a5bf0624}, !- Space Name
  Surface,                                !- Outside Boundary Condition
  {142f29e8-3f7e-4ba8-ba55-01f3c89dadd9}, !- Outside Boundary Condition Object
  NoSun,                                  !- Sun Exposure
  NoWind,                                 !- Wind Exposure
  ,                                       !- View Factor to Ground
  ,                                       !- Number of Vertices
  11.2775999993904, 3.048, 2.4384,        !- X,Y,Z Vertex 1 {m}
  11.2775999993904, 3.048, 0,             !- X,Y,Z Vertex 2 {m}
  7.6199999993904, 3.048, 0,              !- X,Y,Z Vertex 3 {m}