!- NOTE: Auto-generated from /test/osw_files/SFD_HVACSizing_Equip_EF_AC2_Fixed.osw

OS:Version,
  {5b543d81-1d76-4fd5-b2fc-4d518c37345f}, !- Handle
  2.7.0;                                  !- Version Identifier

OS:Building,
  {6f44af2f-e347-43e6-a9a9-b2bb97af8b50}, !- Handle
  Building 1,                             !- Name
  ,                                       !- Building Sector Type
  22.5,                                   !- North Axis {deg}
  ,                                       !- Nominal Floor to Floor Height {m}
  ,                                       !- Space Type Name
  ,                                       !- Default Construction Set Name
  ,                                       !- Default Schedule Set Name
  4,                                      !- Standards Number of Stories
  3,                                      !- Standards Number of Above Ground Stories
  ,                                       !- Standards Template
  singlefamilydetached,                   !- Standards Building Type
  1;                                      !- Standards Number of Living Units

OS:Facility,
  {0ff1eb06-393f-4456-a2a1-582d3be12ab3}; !- Handle

OS:Site,
  {6be15458-4a43-4f80-ac1d-a690760e28e9}, !- Handle
  Denver Intl Ap_CO_USA,                  !- Name
  39.83,                                  !- Latitude {deg}
  -104.65,                                !- Longitude {deg}
  -7,                                     !- Time Zone {hr}
  1650,                                   !- Elevation {m}
  Suburbs;                                !- Terrain

OS:SimulationControl,
  {f0545531-7339-421b-afe0-0ffcf6ac5043}, !- Handle
  ,                                       !- Do Zone Sizing Calculation
  ,                                       !- Do System Sizing Calculation
  ,                                       !- Do Plant Sizing Calculation
  No;                                     !- Run Simulation for Sizing Periods

OS:Sizing:Parameters,
  {71be85f5-802e-4d47-add2-3ce4885b421b}, !- Handle
  1.25,                                   !- Heating Sizing Factor
  1.15;                                   !- Cooling Sizing Factor

OS:Timestep,
  {15b15c80-4d87-4aa0-bb15-6199aa2cbb7b}, !- Handle
  6;                                      !- Number of Timesteps per Hour

OS:ShadowCalculation,
  {d29ba9d6-b89d-4290-b58d-90799fc8b3c4}, !- Handle
  20,                                     !- Calculation Frequency
  200;                                    !- Maximum Figures in Shadow Overlap Calculations

OS:HeatBalanceAlgorithm,
  {9b458569-d818-4074-bd84-cca48022d266}, !- Handle
  ConductionTransferFunction,             !- Algorithm
  200;                                    !- Surface Temperature Upper Limit {C}

OS:RunPeriod,
  {663860cc-c205-4b0f-a776-d127e975b47a}, !- Handle
  Run Period 1,                           !- Name
  1,                                      !- Begin Month
  1,                                      !- Begin Day of Month
  12,                                     !- End Month
  31,                                     !- End Day of Month
  ,                                       !- Use Weather File Holidays and Special Days
  ,                                       !- Use Weather File Daylight Saving Period
  ,                                       !- Apply Weekend Holiday Rule
  ,                                       !- Use Weather File Rain Indicators
  ,                                       !- Use Weather File Snow Indicators
  ;                                       !- Number of Times Runperiod to be Repeated

OS:LifeCycleCost:Parameters,
  {bf0e0ce1-c8d3-45b0-955d-a24395fcf08b}, !- Handle
  ,                                       !- Analysis Type
  ,                                       !- Discounting Convention
  ,                                       !- Inflation Approach
  ,                                       !- Real Discount Rate
  ,                                       !- Nominal Discount Rate
  ,                                       !- Inflation
  ,                                       !- Base Date Month
  ,                                       !- Base Date Year
  ,                                       !- Service Date Month
  ,                                       !- Service Date Year
  ;                                       !- Length of Study Period in Years

OS:SurfaceConvectionAlgorithm:Outside,
  {21a72d18-0d92-42e6-b09f-90784d3b3d5b}, !- Handle
  DOE-2;                                  !- Algorithm

OS:SurfaceConvectionAlgorithm:Inside,
  {6e3d1e3e-78bf-4085-9200-7461d6eb7fb9}, !- Handle
  TARP;                                   !- Algorithm

OS:ZoneCapacitanceMultiplier:ResearchSpecial,
  {a89afd69-b2a6-4a02-8618-15c75c371882}, !- Handle
  ,                                       !- Temperature Capacity Multiplier
  15,                                     !- Humidity Capacity Multiplier
  ;                                       !- Carbon Dioxide Capacity Multiplier

OS:WeatherFile,
  {69c991cd-fbd2-46e3-af44-53959fb8604f}, !- Handle
  Denver Intl Ap,                         !- City
  CO,                                     !- State Province Region
  USA,                                    !- Country
  TMY3,                                   !- Data Source
  725650,                                 !- WMO Number
  39.83,                                  !- Latitude {deg}
  -104.65,                                !- Longitude {deg}
  -7,                                     !- Time Zone {hr}
  1650,                                   !- Elevation {m}
  file:../tests/USA_CO_Denver_Intl_AP_725650_TMY3.epw, !- Url
  E23378AA;                               !- Checksum

OS:AdditionalProperties,
  {c5b92145-bb48-4286-9de1-bbee9a41fce3}, !- Handle
  {69c991cd-fbd2-46e3-af44-53959fb8604f}, !- Object Name
  EPWHeaderCity,                          !- Feature Name 1
  String,                                 !- Feature Data Type 1
  Denver Intl Ap,                         !- Feature Value 1
  EPWHeaderState,                         !- Feature Name 2
  String,                                 !- Feature Data Type 2
  CO,                                     !- Feature Value 2
  EPWHeaderCountry,                       !- Feature Name 3
  String,                                 !- Feature Data Type 3
  USA,                                    !- Feature Value 3
  EPWHeaderDataSource,                    !- Feature Name 4
  String,                                 !- Feature Data Type 4
  TMY3,                                   !- Feature Value 4
  EPWHeaderStation,                       !- Feature Name 5
  String,                                 !- Feature Data Type 5
  725650,                                 !- Feature Value 5
  EPWHeaderLatitude,                      !- Feature Name 6
  Double,                                 !- Feature Data Type 6
  39.829999999999998,                     !- Feature Value 6
  EPWHeaderLongitude,                     !- Feature Name 7
  Double,                                 !- Feature Data Type 7
  -104.65000000000001,                    !- Feature Value 7
  EPWHeaderTimezone,                      !- Feature Name 8
  Double,                                 !- Feature Data Type 8
  -7,                                     !- Feature Value 8
  EPWHeaderAltitude,                      !- Feature Name 9
  Double,                                 !- Feature Data Type 9
  5413.3858267716532,                     !- Feature Value 9
  EPWHeaderLocalPressure,                 !- Feature Name 10
  Double,                                 !- Feature Data Type 10
  0.81937567683596546,                    !- Feature Value 10
  EPWHeaderRecordsPerHour,                !- Feature Name 11
  Double,                                 !- Feature Data Type 11
  1,                                      !- Feature Value 11
  EPWDataAnnualAvgDrybulb,                !- Feature Name 12
  Double,                                 !- Feature Data Type 12
  51.575616438356228,                     !- Feature Value 12
  EPWDataAnnualMinDrybulb,                !- Feature Name 13
  Double,                                 !- Feature Data Type 13
  -2.9200000000000017,                    !- Feature Value 13
  EPWDataAnnualMaxDrybulb,                !- Feature Name 14
  Double,                                 !- Feature Data Type 14
  104,                                    !- Feature Value 14
  EPWDataCDD50F,                          !- Feature Name 15
  Double,                                 !- Feature Data Type 15
  3072.2925000000005,                     !- Feature Value 15
  EPWDataCDD65F,                          !- Feature Name 16
  Double,                                 !- Feature Data Type 16
  883.62000000000035,                     !- Feature Value 16
  EPWDataHDD50F,                          !- Feature Name 17
  Double,                                 !- Feature Data Type 17
  2497.1925000000001,                     !- Feature Value 17
  EPWDataHDD65F,                          !- Feature Name 18
  Double,                                 !- Feature Data Type 18
  5783.5200000000013,                     !- Feature Value 18
  EPWDataAnnualAvgWindspeed,              !- Feature Name 19
  Double,                                 !- Feature Data Type 19
  3.9165296803649667,                     !- Feature Value 19
  EPWDataMonthlyAvgDrybulbs,              !- Feature Name 20
  String,                                 !- Feature Data Type 20
  33.4191935483871&#4431.90142857142857&#4443.02620967741937&#4442.48624999999999&#4459.877741935483854&#4473.57574999999997&#4472.07975806451608&#4472.70008064516134&#4466.49200000000006&#4450.079112903225806&#4437.218250000000005&#4434.582177419354835, !- Feature Value 20
  EPWDataGroundMonthlyTemps,              !- Feature Name 21
  String,                                 !- Feature Data Type 21
  44.08306285945173&#4440.89570904991865&#4440.64045432632048&#4442.153016571250646&#4448.225111118704206&#4454.268919273837525&#4459.508577937551024&#4462.82777283423508&#4463.10975667174995&#4460.41014950381947&#4455.304105212311526&#4449.445696474514364, !- Feature Value 21
  EPWDataWSF,                             !- Feature Name 22
  Double,                                 !- Feature Data Type 22
  0.58999999999999997,                    !- Feature Value 22
  EPWDataMonthlyAvgDailyHighDrybulbs,     !- Feature Name 23
  String,                                 !- Feature Data Type 23
  47.41032258064516&#4446.58642857142857&#4455.15032258064517&#4453.708&#4472.80193548387098&#4488.67600000000002&#4486.1858064516129&#4485.87225806451613&#4482.082&#4463.18064516129033&#4448.73400000000001&#4448.87935483870968, !- Feature Value 23
  EPWDataMonthlyAvgDailyLowDrybulbs,      !- Feature Name 24
  String,                                 !- Feature Data Type 24
  19.347741935483874&#4419.856428571428573&#4430.316129032258065&#4431.112&#4447.41612903225806&#4457.901999999999994&#4459.063870967741934&#4460.956774193548384&#4452.352000000000004&#4438.41612903225806&#4427.002000000000002&#4423.02903225806451, !- Feature Value 24
  EPWDesignHeatingDrybulb,                !- Feature Name 25
  Double,                                 !- Feature Data Type 25
  6.8000000000000007,                     !- Feature Value 25
  EPWDesignHeatingWindspeed,              !- Feature Name 26
  Double,                                 !- Feature Data Type 26
  12,                                     !- Feature Value 26
  EPWDesignCoolingDrybulb,                !- Feature Name 27
  Double,                                 !- Feature Data Type 27
  91.760000000000005,                     !- Feature Value 27
  EPWDesignCoolingWetbulb,                !- Feature Name 28
  Double,                                 !- Feature Data Type 28
  60.079999999999998,                     !- Feature Value 28
  EPWDesignCoolingHumidityRatio,          !- Feature Name 29
  Double,                                 !- Feature Data Type 29
  0.006050392196571398,                   !- Feature Value 29
  EPWDesignCoolingWindspeed,              !- Feature Name 30
  Double,                                 !- Feature Data Type 30
  4.2000000000000002,                     !- Feature Value 30
  EPWDesignDailyTemperatureRange,         !- Feature Name 31
  Double,                                 !- Feature Data Type 31
  27.359999999999999,                     !- Feature Value 31
  EPWDesignDehumidDrybulb,                !- Feature Name 32
  Double,                                 !- Feature Data Type 32
  67.280000000000001,                     !- Feature Value 32
  EPWDesignDehumidHumidityRatio,          !- Feature Name 33
  Double,                                 !- Feature Data Type 33
  0.012295426899271008,                   !- Feature Value 33
  EPWDesignCoolingDirectNormal,           !- Feature Name 34
  Double,                                 !- Feature Data Type 34
  985,                                    !- Feature Value 34
  EPWDesignCoolingDiffuseHorizontal,      !- Feature Name 35
  Double,                                 !- Feature Data Type 35
  84;                                     !- Feature Value 35

OS:YearDescription,
  {6d301bd2-5ae2-4805-b7ca-d90a1c784d50}, !- Handle
  ,                                       !- Calendar Year
  Monday;                                 !- Day of Week for Start Day

OS:ClimateZones,
  {d2c9dd77-7272-49f1-a512-c3666ab77633}, !- Handle
  ,                                       !- Active Institution
  ,                                       !- Active Year
  ,                                       !- Climate Zone Institution Name 1
  ,                                       !- Climate Zone Document Name 1
  ,                                       !- Climate Zone Document Year 1
  ,                                       !- Climate Zone Value 1
  Building America,                       !- Climate Zone Institution Name 2
  ,                                       !- Climate Zone Document Name 2
  0,                                      !- Climate Zone Document Year 2
  Cold;                                   !- Climate Zone Value 2

OS:Site:WaterMainsTemperature,
  {61db9450-4ed1-40ae-9014-1fcbb071e337}, !- Handle
  Correlation,                            !- Calculation Method
  ,                                       !- Temperature Schedule Name
  10.8753424657535,                       !- Annual Average Outdoor Air Temperature {C}
  23.1524007936508;                       !- Maximum Difference In Monthly Average Outdoor Air Temperatures {deltaC}

OS:RunPeriodControl:DaylightSavingTime,
  {03a94164-43af-40e9-a3fc-1afca2fb95c5}, !- Handle
  4/7,                                    !- Start Date
  10/26;                                  !- End Date

OS:Site:GroundTemperature:Deep,
  {9964f326-6339-41f8-8b14-f5d212ca57c5}, !- Handle
  10.8753424657535,                       !- January Deep Ground Temperature {C}
  10.8753424657535,                       !- February Deep Ground Temperature {C}
  10.8753424657535,                       !- March Deep Ground Temperature {C}
  10.8753424657535,                       !- April Deep Ground Temperature {C}
  10.8753424657535,                       !- May Deep Ground Temperature {C}
  10.8753424657535,                       !- June Deep Ground Temperature {C}
  10.8753424657535,                       !- July Deep Ground Temperature {C}
  10.8753424657535,                       !- August Deep Ground Temperature {C}
  10.8753424657535,                       !- September Deep Ground Temperature {C}
  10.8753424657535,                       !- October Deep Ground Temperature {C}
  10.8753424657535,                       !- November Deep Ground Temperature {C}
  10.8753424657535;                       !- December Deep Ground Temperature {C}

OS:ThermalZone,
  {56779c7c-b178-42f4-848a-45b66824efed}, !- Handle
  living zone,                            !- Name
  ,                                       !- Multiplier
  ,                                       !- Ceiling Height {m}
  ,                                       !- Volume {m3}
  ,                                       !- Floor Area {m2}
  ,                                       !- Zone Inside Convection Algorithm
  ,                                       !- Zone Outside Convection Algorithm
  ,                                       !- Zone Conditioning Equipment List Name
  {f1b4a4cd-4d0a-4562-8a34-8385611a9180}, !- Zone Air Inlet Port List
  {ba6f1174-0bd7-4b51-8b1c-6ae528aa29c0}, !- Zone Air Exhaust Port List
  {c94d3eb0-bc9e-4b12-9276-1ade19282f7f}, !- Zone Air Node Name
  {43a958fb-d66a-4491-bd12-48b684b06ac9}, !- Zone Return Air Port List
  ,                                       !- Primary Daylighting Control Name
  ,                                       !- Fraction of Zone Controlled by Primary Daylighting Control
  ,                                       !- Secondary Daylighting Control Name
  ,                                       !- Fraction of Zone Controlled by Secondary Daylighting Control
  ,                                       !- Illuminance Map Name
  ,                                       !- Group Rendering Name
  {39dccc15-4d54-4623-a133-98b7b22f4657}, !- Thermostat Name
  No;                                     !- Use Ideal Air Loads

OS:Node,
  {b7740c31-8481-42a2-a920-6f58568ddf3e}, !- Handle
  Node 1,                                 !- Name
  {c94d3eb0-bc9e-4b12-9276-1ade19282f7f}, !- Inlet Port
  ;                                       !- Outlet Port

OS:Connection,
  {c94d3eb0-bc9e-4b12-9276-1ade19282f7f}, !- Handle
  {37c4f28a-1322-418d-992a-788bec617464}, !- Name
  {56779c7c-b178-42f4-848a-45b66824efed}, !- Source Object
  11,                                     !- Outlet Port
  {b7740c31-8481-42a2-a920-6f58568ddf3e}, !- Target Object
  2;                                      !- Inlet Port

OS:PortList,
  {f1b4a4cd-4d0a-4562-8a34-8385611a9180}, !- Handle
  {febd5f15-fb62-438f-afbe-69fc826f0cc3}, !- Name
  {56779c7c-b178-42f4-848a-45b66824efed}, !- HVAC Component
  {547f21a2-228e-4734-b915-35cf26dc1d22}, !- Port 1
  {d6bab306-c8e9-4dce-97aa-b896a5b1d12c}; !- Port 2

OS:PortList,
  {ba6f1174-0bd7-4b51-8b1c-6ae528aa29c0}, !- Handle
  {97d88a7a-1931-4a11-9157-99a4fd9639f3}, !- Name
  {56779c7c-b178-42f4-848a-45b66824efed}; !- HVAC Component

OS:PortList,
  {43a958fb-d66a-4491-bd12-48b684b06ac9}, !- Handle
  {d7586d8c-bbb6-49e3-bc1a-b7a851a9a848}, !- Name
  {56779c7c-b178-42f4-848a-45b66824efed}, !- HVAC Component
  {0061b802-3ad7-49cc-a3a8-9ef6730fc933}, !- Port 1
  {2f7d9aa1-b230-4065-bf84-ada12c13858a}; !- Port 2

OS:Sizing:Zone,
  {03920e49-a25c-4110-a151-603e0ae3fa19}, !- Handle
  {56779c7c-b178-42f4-848a-45b66824efed}, !- Zone or ZoneList Name
  SupplyAirTemperature,                   !- Zone Cooling Design Supply Air Temperature Input Method
  14,                                     !- Zone Cooling Design Supply Air Temperature {C}
  11.11,                                  !- Zone Cooling Design Supply Air Temperature Difference {deltaC}
  SupplyAirTemperature,                   !- Zone Heating Design Supply Air Temperature Input Method
  40,                                     !- Zone Heating Design Supply Air Temperature {C}
  11.11,                                  !- Zone Heating Design Supply Air Temperature Difference {deltaC}
  0.0085,                                 !- Zone Cooling Design Supply Air Humidity Ratio {kg-H2O/kg-air}
  0.008,                                  !- Zone Heating Design Supply Air Humidity Ratio {kg-H2O/kg-air}
  ,                                       !- Zone Heating Sizing Factor
  ,                                       !- Zone Cooling Sizing Factor
  DesignDay,                              !- Cooling Design Air Flow Method
  ,                                       !- Cooling Design Air Flow Rate {m3/s}
  ,                                       !- Cooling Minimum Air Flow per Zone Floor Area {m3/s-m2}
  ,                                       !- Cooling Minimum Air Flow {m3/s}
  ,                                       !- Cooling Minimum Air Flow Fraction
  DesignDay,                              !- Heating Design Air Flow Method
  ,                                       !- Heating Design Air Flow Rate {m3/s}
  ,                                       !- Heating Maximum Air Flow per Zone Floor Area {m3/s-m2}
  ,                                       !- Heating Maximum Air Flow {m3/s}
  ,                                       !- Heating Maximum Air Flow Fraction
  ,                                       !- Design Zone Air Distribution Effectiveness in Cooling Mode
  ,                                       !- Design Zone Air Distribution Effectiveness in Heating Mode
  No,                                     !- Account for Dedicated Outdoor Air System
  NeutralSupplyAir,                       !- Dedicated Outdoor Air System Control Strategy
  autosize,                               !- Dedicated Outdoor Air Low Setpoint Temperature for Design {C}
  autosize;                               !- Dedicated Outdoor Air High Setpoint Temperature for Design {C}

OS:ZoneHVAC:EquipmentList,
  {230afe52-2f3c-4a74-9bba-ba05b558b3a5}, !- Handle
  Zone HVAC Equipment List 1,             !- Name
  {56779c7c-b178-42f4-848a-45b66824efed}, !- Thermal Zone
  SequentialLoad,                         !- Load Distribution Scheme
  {1cf061ca-068d-449c-abfe-281b14dfcfee}, !- Zone Equipment 1
  1,                                      !- Zone Equipment Cooling Sequence 1
  1,                                      !- Zone Equipment Heating or No-Load Sequence 1
  {fbb79e0c-035d-4b57-a9cf-a6581de5f003}, !- Zone Equipment 2
  2,                                      !- Zone Equipment Cooling Sequence 2
  2;                                      !- Zone Equipment Heating or No-Load Sequence 2

OS:ThermalZone,
  {65c4062e-9d85-43c5-ad81-fbe635add93d}, !- Handle
  garage zone,                            !- Name
  ,                                       !- Multiplier
  ,                                       !- Ceiling Height {m}
  ,                                       !- Volume {m3}
  ,                                       !- Floor Area {m2}
  ,                                       !- Zone Inside Convection Algorithm
  ,                                       !- Zone Outside Convection Algorithm
  ,                                       !- Zone Conditioning Equipment List Name
  {d05bb1ae-ffd9-40ff-926e-90b8fd1f78f0}, !- Zone Air Inlet Port List
  {8ae4d48c-3e25-4751-bb73-eed1bb6f1393}, !- Zone Air Exhaust Port List
  {a766516a-7003-4890-b107-b7eb2c29128c}, !- Zone Air Node Name
  {57aef891-1c30-4be9-af64-dd5d10338368}, !- Zone Return Air Port List
  ,                                       !- Primary Daylighting Control Name
  ,                                       !- Fraction of Zone Controlled by Primary Daylighting Control
  ,                                       !- Secondary Daylighting Control Name
  ,                                       !- Fraction of Zone Controlled by Secondary Daylighting Control
  ,                                       !- Illuminance Map Name
  ,                                       !- Group Rendering Name
  ,                                       !- Thermostat Name
  No;                                     !- Use Ideal Air Loads

OS:Node,
  {6568b32a-59b5-4ace-a783-66daf65fe03e}, !- Handle
  Node 2,                                 !- Name
  {a766516a-7003-4890-b107-b7eb2c29128c}, !- Inlet Port
  ;                                       !- Outlet Port

OS:Connection,
  {a766516a-7003-4890-b107-b7eb2c29128c}, !- Handle
  {8b5f6165-2aad-47a8-81aa-ca8492d0a4a4}, !- Name
  {65c4062e-9d85-43c5-ad81-fbe635add93d}, !- Source Object
  11,                                     !- Outlet Port
  {6568b32a-59b5-4ace-a783-66daf65fe03e}, !- Target Object
  2;                                      !- Inlet Port

OS:PortList,
  {d05bb1ae-ffd9-40ff-926e-90b8fd1f78f0}, !- Handle
  {ab4694cf-be58-4b1c-963d-9d29a0ba5641}, !- Name
  {65c4062e-9d85-43c5-ad81-fbe635add93d}; !- HVAC Component

OS:PortList,
  {8ae4d48c-3e25-4751-bb73-eed1bb6f1393}, !- Handle
  {bbfa59e6-ae48-416b-9e4f-829924303cd4}, !- Name
  {65c4062e-9d85-43c5-ad81-fbe635add93d}; !- HVAC Component

OS:PortList,
  {57aef891-1c30-4be9-af64-dd5d10338368}, !- Handle
  {a6ac0e9f-2a4c-441a-9719-2e5d5ed93a0f}, !- Name
  {65c4062e-9d85-43c5-ad81-fbe635add93d}; !- HVAC Component

OS:Sizing:Zone,
  {c636e389-0f96-4896-836d-c1e70f5ca121}, !- Handle
  {65c4062e-9d85-43c5-ad81-fbe635add93d}, !- Zone or ZoneList Name
  SupplyAirTemperature,                   !- Zone Cooling Design Supply Air Temperature Input Method
  14,                                     !- Zone Cooling Design Supply Air Temperature {C}
  11.11,                                  !- Zone Cooling Design Supply Air Temperature Difference {deltaC}
  SupplyAirTemperature,                   !- Zone Heating Design Supply Air Temperature Input Method
  40,                                     !- Zone Heating Design Supply Air Temperature {C}
  11.11,                                  !- Zone Heating Design Supply Air Temperature Difference {deltaC}
  0.0085,                                 !- Zone Cooling Design Supply Air Humidity Ratio {kg-H2O/kg-air}
  0.008,                                  !- Zone Heating Design Supply Air Humidity Ratio {kg-H2O/kg-air}
  ,                                       !- Zone Heating Sizing Factor
  ,                                       !- Zone Cooling Sizing Factor
  DesignDay,                              !- Cooling Design Air Flow Method
  ,                                       !- Cooling Design Air Flow Rate {m3/s}
  ,                                       !- Cooling Minimum Air Flow per Zone Floor Area {m3/s-m2}
  ,                                       !- Cooling Minimum Air Flow {m3/s}
  ,                                       !- Cooling Minimum Air Flow Fraction
  DesignDay,                              !- Heating Design Air Flow Method
  ,                                       !- Heating Design Air Flow Rate {m3/s}
  ,                                       !- Heating Maximum Air Flow per Zone Floor Area {m3/s-m2}
  ,                                       !- Heating Maximum Air Flow {m3/s}
  ,                                       !- Heating Maximum Air Flow Fraction
  ,                                       !- Design Zone Air Distribution Effectiveness in Cooling Mode
  ,                                       !- Design Zone Air Distribution Effectiveness in Heating Mode
  No,                                     !- Account for Dedicated Outdoor Air System
  NeutralSupplyAir,                       !- Dedicated Outdoor Air System Control Strategy
  autosize,                               !- Dedicated Outdoor Air Low Setpoint Temperature for Design {C}
  autosize;                               !- Dedicated Outdoor Air High Setpoint Temperature for Design {C}

OS:ZoneHVAC:EquipmentList,
  {e4f3ba2e-c2c8-4ebc-acb8-42e5681c0e27}, !- Handle
  Zone HVAC Equipment List 2,             !- Name
  {65c4062e-9d85-43c5-ad81-fbe635add93d}; !- Thermal Zone

OS:Space,
  {86ddc2d5-ca61-457d-8688-4da1e83c04f4}, !- Handle
  garage space,                           !- Name
  {1cbe0e39-ef6b-4efa-880e-8793f00a5b81}, !- Space Type Name
  ,                                       !- Default Construction Set Name
  ,                                       !- Default Schedule Set Name
  -0,                                     !- Direction of Relative North {deg}
  0,                                      !- X Origin {m}
  0,                                      !- Y Origin {m}
  0,                                      !- Z Origin {m}
  ,                                       !- Building Story Name
  {65c4062e-9d85-43c5-ad81-fbe635add93d}; !- Thermal Zone Name

OS:Surface,
  {9777e9a2-f1cd-433f-890f-dfb394ddad1f}, !- Handle
  Surface 1,                              !- Name
  Floor,                                  !- Surface Type
  {4d957fa3-bcb0-47b3-a4d2-186f088a6611}, !- Construction Name
  {86ddc2d5-ca61-457d-8688-4da1e83c04f4}, !- Space Name
  Foundation,                             !- Outside Boundary Condition
  {48be7f6f-f3ed-4e49-964d-d2d43639e649}, !- Outside Boundary Condition Object
  NoSun,                                  !- Sun Exposure
  NoWind,                                 !- Wind Exposure
  ,                                       !- View Factor to Ground
  ,                                       !- Number of Vertices
  7.6199999993904, -3.048, 0,             !- X,Y,Z Vertex 1 {m}
  7.6199999993904, 3.048, 0,              !- X,Y,Z Vertex 2 {m}
  11.2775999993904, 3.048, 0,             !- X,Y,Z Vertex 3 {m}
  11.2775999993904, -3.048, 0;            !- X,Y,Z Vertex 4 {m}

OS:Surface,
  {f587b7a7-2c1c-49be-8422-240679c39ba0}, !- Handle
  Surface 2,                              !- Name
  Wall,                                   !- Surface Type
  {0e54ef3f-5d68-4431-b423-2b3c262bf1d1}, !- Construction Name
  {86ddc2d5-ca61-457d-8688-4da1e83c04f4}, !- Space Name
  Surface,                                !- Outside Boundary Condition
  {4b33ac20-c0b3-4d19-a79b-0f100758b763}, !- Outside Boundary Condition Object
  NoSun,                                  !- Sun Exposure
  NoWind,                                 !- Wind Exposure
  ,                                       !- View Factor to Ground
  ,                                       !- Number of Vertices
  7.6199999993904, 3.048, 2.4384,         !- X,Y,Z Vertex 1 {m}
  7.6199999993904, 3.048, 0,              !- X,Y,Z Vertex 2 {m}
  7.6199999993904, 0, 0,                  !- X,Y,Z Vertex 3 {m}
  7.6199999993904, 0, 2.4384;             !- X,Y,Z Vertex 4 {m}

OS:Surface,
  {cb6b1007-0ff7-42b3-92ce-83961aa3fd18}, !- Handle
  Surface 3,                              !- Name