!- NOTE: Auto-generated from /test/osw_files/SFD_HVACSizing_Equip_Dehumidifier_Auto_Atlanta.osw

OS:Version,
  {724366a7-041f-47f5-9818-3f9665673418}, !- Handle
  2.6.0;                                  !- Version Identifier

OS:Building,
  {008e0872-00c0-4282-8c12-9ce84ce6454a}, !- Handle
  Building 1,                             !- Name
  ,                                       !- Building Sector Type
  22.5,                                   !- North Axis {deg}
  ,                                       !- Nominal Floor to Floor Height {m}
  ,                                       !- Space Type Name
  ,                                       !- Default Construction Set Name
  ,                                       !- Default Schedule Set Name
  4,                                      !- Standards Number of Stories
  3,                                      !- Standards Number of Above Ground Stories
  singlefamilydetached,                   !- Standards Building Type
  1;                                      !- Standards Number of Living Units

OS:Facility,
  {9a2d5c36-4cb1-420e-bd6e-4268af77eef6}; !- Handle

OS:Site,
  {6798ce06-9489-420b-8cf7-3a7f1d359058}, !- Handle
  Atlanta Hartsfield Intl Ap_GA_USA,      !- Name
  33.63,                                  !- Latitude {deg}
  -84.43,                                 !- Longitude {deg}
  -5,                                     !- Time Zone {hr}
  308,                                    !- Elevation {m}
  Suburbs;                                !- Terrain

OS:SimulationControl,
  {680d8022-c0ec-4f9a-b075-bb15e9d84eff}, !- Handle
  ,                                       !- Do Zone Sizing Calculation
  ,                                       !- Do System Sizing Calculation
  ,                                       !- Do Plant Sizing Calculation
  No;                                     !- Run Simulation for Sizing Periods

OS:Sizing:Parameters,
  {9f646090-021c-4ad2-96fb-5f2a8190d35d}, !- Handle
  1.25,                                   !- Heating Sizing Factor
  1.15;                                   !- Cooling Sizing Factor

OS:Timestep,
  {7502637e-6733-4038-9548-c577fc0d17b1}, !- Handle
  6;                                      !- Number of Timesteps per Hour

OS:ShadowCalculation,
  {d4554e16-7f4e-4bd3-ab9b-7d86011f9fe0}, !- Handle
  20,                                     !- Calculation Frequency
  200;                                    !- Maximum Figures in Shadow Overlap Calculations

OS:HeatBalanceAlgorithm,
  {98fc6b71-3a9f-427e-8a4e-3a0e4d5a06fa}, !- Handle
  ConductionTransferFunction,             !- Algorithm
  200;                                    !- Surface Temperature Upper Limit {C}

OS:RunPeriod,
  {18f9e6d7-dfd3-4068-9be8-6fa8194188d5}, !- Handle
  Run Period 1,                           !- Name
  1,                                      !- Begin Month
  1,                                      !- Begin Day of Month
  12,                                     !- End Month
  31,                                     !- End Day of Month
  ,                                       !- Use Weather File Holidays and Special Days
  ,                                       !- Use Weather File Daylight Saving Period
  ,                                       !- Apply Weekend Holiday Rule
  ,                                       !- Use Weather File Rain Indicators
  ,                                       !- Use Weather File Snow Indicators
  ;                                       !- Number of Times Runperiod to be Repeated

OS:LifeCycleCost:Parameters,
  {479fa01d-920c-45a9-9d43-878e3d09127b}, !- Handle
  ,                                       !- Analysis Type
  ,                                       !- Discounting Convention
  ,                                       !- Inflation Approach
  ,                                       !- Real Discount Rate
  ,                                       !- Nominal Discount Rate
  ,                                       !- Inflation
  ,                                       !- Base Date Month
  ,                                       !- Base Date Year
  ,                                       !- Service Date Month
  ,                                       !- Service Date Year
  ;                                       !- Length of Study Period in Years

OS:SurfaceConvectionAlgorithm:Outside,
  {a173aa60-2719-4b20-8175-516d75bad036}, !- Handle
  DOE-2;                                  !- Algorithm

OS:SurfaceConvectionAlgorithm:Inside,
  {04e33c8a-7992-4080-b540-2353fdb61843}, !- Handle
  TARP;                                   !- Algorithm

OS:ZoneCapacitanceMultiplier:ResearchSpecial,
  {9bf968ac-740d-43db-b773-04ec3f496d40}, !- Handle
  ,                                       !- Temperature Capacity Multiplier
  15,                                     !- Humidity Capacity Multiplier
  ;                                       !- Carbon Dioxide Capacity Multiplier

OS:WeatherFile,
  {503c09e6-c956-4f3f-8b6e-10db7b884c82}, !- Handle
  Atlanta Hartsfield Intl Ap,             !- City
  GA,                                     !- State Province Region
  USA,                                    !- Country
  TMY3,                                   !- Data Source
  722190,                                 !- WMO Number
  33.63,                                  !- Latitude {deg}
  -84.43,                                 !- Longitude {deg}
  -5,                                     !- Time Zone {hr}
  308,                                    !- Elevation {m}
  file:../tests/USA_GA_Atlanta-Hartsfield-Jackson.Intl.AP.722190_TMY3.epw, !- Url
  F0AA8FA7;                               !- Checksum

OS:BuildingUnit,
  {93ec34a7-c13f-4cb8-97ea-5b7d215ece40}, !- Handle
  EPWWeatherInfo,                         !- Name
  ,                                       !- Rendering Color
  Residential;                            !- Building Unit Type

OS:AdditionalProperties,
  {66830566-0fd3-4e2a-9db4-c854e5ce66ac}, !- Handle
  {93ec34a7-c13f-4cb8-97ea-5b7d215ece40}, !- Object Name
  EPWHeaderCity,                          !- Feature Name 1
  String,                                 !- Feature Data Type 1
  Atlanta Hartsfield Intl Ap,             !- Feature Value 1
  EPWHeaderState,                         !- Feature Name 2
  String,                                 !- Feature Data Type 2
  GA,                                     !- Feature Value 2
  EPWHeaderCountry,                       !- Feature Name 3
  String,                                 !- Feature Data Type 3
  USA,                                    !- Feature Value 3
  EPWHeaderDataSource,                    !- Feature Name 4
  String,                                 !- Feature Data Type 4
  TMY3,                                   !- Feature Value 4
  EPWHeaderStation,                       !- Feature Name 5
  String,                                 !- Feature Data Type 5
  722190,                                 !- Feature Value 5
  EPWHeaderLatitude,                      !- Feature Name 6
  Double,                                 !- Feature Data Type 6
  33.630000000000003,                     !- Feature Value 6
  EPWHeaderLongitude,                     !- Feature Name 7
  Double,                                 !- Feature Data Type 7
  -84.430000000000007,                    !- Feature Value 7
  EPWHeaderTimezone,                      !- Feature Name 8
  Double,                                 !- Feature Data Type 8
  -5,                                     !- Feature Value 8
  EPWHeaderAltitude,                      !- Feature Name 9
  Double,                                 !- Feature Data Type 9
  1010.498687664042,                      !- Feature Value 9
  EPWHeaderLocalPressure,                 !- Feature Name 10
  Double,                                 !- Feature Data Type 10
  0.96349656938889539,                    !- Feature Value 10
  EPWDataAnnualAvgDrybulb,                !- Feature Name 11
  Double,                                 !- Feature Data Type 11
  61.975219178082227,                     !- Feature Value 11
  EPWDataAnnualMinDrybulb,                !- Feature Name 12
  Double,                                 !- Feature Data Type 12
  8.9599999999999973,                     !- Feature Value 12
  EPWDataAnnualMaxDrybulb,                !- Feature Name 13
  Double,                                 !- Feature Data Type 13
  98.060000000000002,                     !- Feature Value 13
  EPWDataCDD50F,                          !- Feature Name 14
  Double,                                 !- Feature Data Type 14
  5167.4549999999999,                     !- Feature Value 14
  EPWDataCDD65F,                          !- Feature Name 15
  Double,                                 !- Feature Data Type 15
  1722.3449999999996,                     !- Feature Value 15
  EPWDataHDD50F,                          !- Feature Name 16
  Double,                                 !- Feature Data Type 16
  796.49999999999966,                     !- Feature Value 16
  EPWDataHDD65F,                          !- Feature Name 17
  Double,                                 !- Feature Data Type 17
  2826.3900000000008,                     !- Feature Value 17
  EPWDataAnnualAvgWindspeed,              !- Feature Name 18
  Double,                                 !- Feature Data Type 18
  4.0382762557073244,                     !- Feature Value 18
  EPWDataMonthlyAvgDrybulbs,              !- Feature Name 19
  String,                                 !- Feature Data Type 19
  39.14217741935483&#4446.29312500000001&#4456.77129032258064&#4462.98849999999998&#4469.51064516129031&#4476.63525000000004&#4478.91685483870964&#4479.78104838709672&#4472.54099999999995&#4460.83895161290323&#4453.48324999999999&#4445.85540322580647, !- Feature Value 19
  EPWDataGroundMonthlyTemps,              !- Feature Name 20
  String,                                 !- Feature Data Type 20
  54.677026693263485&#4451.56886666200381&#4451.319954060175576&#4452.794934810798&#4458.716160600660885&#4464.60980280887844&#4469.7192756221221&#4472.95600098438916&#4473.23097858198247&#4470.59844651906309&#4465.61926826240398&#4459.90641899190797, !- Feature Value 20
  EPWDataWSF,                             !- Feature Name 21
  Double,                                 !- Feature Data Type 21
  0.46000000000000002,                    !- Feature Value 21
  EPWDataMonthlyAvgDailyHighDrybulbs,     !- Feature Name 22
  String,                                 !- Feature Data Type 22
  47.23032258064516&#4457.83642857142857&#4466.85032258064516&#4474.78&#4480.28064516129032&#4488.19600000000001&#4489.07741935483871&#4489.20516129032258&#4481.518&#4471.15870967741935&#4465.69&#4455.800645161290326, !- Feature Value 22
  EPWDataMonthlyAvgDailyLowDrybulbs,      !- Feature Name 23
  String,                                 !- Feature Data Type 23
  31.065161290322582&#4435.863571428571426&#4446.69032258064516&#4451.236000000000004&#4459.22064516129032&#4465.924&#4469.73612903225808&#4472.19806451612905&#4464.46600000000001&#4450.88258064516128&#4442.818&#4437.09806451612903, !- Feature Value 23
  EPWDesignHeatingDrybulb,                !- Feature Name 24
  Double,                                 !- Feature Data Type 24
  25.699999999999999,                     !- Feature Value 24
  EPWDesignHeatingWindspeed,              !- Feature Name 25
  Double,                                 !- Feature Data Type 25
  10.699999999999999,                     !- Feature Value 25
  EPWDesignCoolingDrybulb,                !- Feature Name 26
  Double,                                 !- Feature Data Type 26
  91.400000000000006,                     !- Feature Value 26
  EPWDesignCoolingWetbulb,                !- Feature Name 27
  Double,                                 !- Feature Data Type 27
  73.939999999999998,                     !- Feature Value 27
  EPWDesignCoolingHumidityRatio,          !- Feature Name 28
  Double,                                 !- Feature Data Type 28
  0.014532714185157248,                   !- Feature Value 28
  EPWDesignCoolingWindspeed,              !- Feature Name 29
  Double,                                 !- Feature Data Type 29
  4,                                      !- Feature Value 29
  EPWDesignDailyTemperatureRange,         !- Feature Name 30
  Double,                                 !- Feature Data Type 30
  17.100000000000001,                     !- Feature Value 30
  EPWDesignDehumidDrybulb,                !- Feature Name 31
  Double,                                 !- Feature Data Type 31
  79.340000000000003,                     !- Feature Value 31
  EPWDesignDehumidHumidityRatio,          !- Feature Name 32
  Double,                                 !- Feature Data Type 32
  0.017860837341798077,                   !- Feature Value 32
  EPWDesignCoolingDirectNormal,           !- Feature Name 33
  Double,                                 !- Feature Data Type 33
  908,                                    !- Feature Value 33
  EPWDesignCoolingDiffuseHorizontal,      !- Feature Name 34
  Double,                                 !- Feature Data Type 34
  120;                                    !- Feature Value 34

OS:YearDescription,
  {c498304c-7992-4b84-ab2f-33c339676d6c}, !- Handle
  ,                                       !- Calendar Year
  Monday;                                 !- Day of Week for Start Day

OS:ClimateZones,
  {9ffd9377-130d-46d5-a659-0fa0489b1136}, !- Handle
  ,                                       !- Active Institution
  ,                                       !- Active Year
  ,                                       !- Climate Zone Institution Name 1
  ,                                       !- Climate Zone Document Name 1
  ,                                       !- Climate Zone Document Year 1
  ,                                       !- Climate Zone Value 1
  Building America,                       !- Climate Zone Institution Name 2
  ,                                       !- Climate Zone Document Name 2
  0,                                      !- Climate Zone Document Year 2
  Mixed-Humid;                            !- Climate Zone Value 2

OS:Site:WaterMainsTemperature,
  {e13eb6e8-558a-426b-b42a-941396605699}, !- Handle
  Correlation,                            !- Calculation Method
  ,                                       !- Temperature Schedule Name
  16.652899543379,                        !- Annual Average Outdoor Air Temperature {C}
  22.5771505376344;                       !- Maximum Difference In Monthly Average Outdoor Air Temperatures {deltaC}

OS:RunPeriodControl:DaylightSavingTime,
  {04c55ff9-2561-4126-92f3-f2a578e0da4b}, !- Handle
  4/7,                                    !- Start Date
  10/26;                                  !- End Date

OS:Site:GroundTemperature:Deep,
  {c6047dd8-29c7-4a92-8956-365a00149e86}, !- Handle
  16.652899543379,                        !- January Deep Ground Temperature {C}
  16.652899543379,                        !- February Deep Ground Temperature {C}
  16.652899543379,                        !- March Deep Ground Temperature {C}
  16.652899543379,                        !- April Deep Ground Temperature {C}
  16.652899543379,                        !- May Deep Ground Temperature {C}
  16.652899543379,                        !- June Deep Ground Temperature {C}
  16.652899543379,                        !- July Deep Ground Temperature {C}
  16.652899543379,                        !- August Deep Ground Temperature {C}
  16.652899543379,                        !- September Deep Ground Temperature {C}
  16.652899543379,                        !- October Deep Ground Temperature {C}
  16.652899543379,                        !- November Deep Ground Temperature {C}
  16.652899543379;                        !- December Deep Ground Temperature {C}

OS:ThermalZone,
  {05a5fba5-229a-4268-b884-63cf915d84a4}, !- Handle
  living zone,                            !- Name
  ,                                       !- Multiplier
  ,                                       !- Ceiling Height {m}
  ,                                       !- Volume {m3}
  ,                                       !- Floor Area {m2}
  ,                                       !- Zone Inside Convection Algorithm
  ,                                       !- Zone Outside Convection Algorithm
  ,                                       !- Zone Conditioning Equipment List Name
  {8588cdfe-4079-4d54-a455-10119f872565}, !- Zone Air Inlet Port List
  {70fc7a2b-6675-4d78-9b55-6ac6edfe8ce2}, !- Zone Air Exhaust Port List
  {3e1b8388-c0f0-48df-8e97-86e474027647}, !- Zone Air Node Name
  ,                                       !- Zone Return Air Node Name
  ,                                       !- Primary Daylighting Control Name
  ,                                       !- Fraction of Zone Controlled by Primary Daylighting Control
  ,                                       !- Secondary Daylighting Control Name
  ,                                       !- Fraction of Zone Controlled by Secondary Daylighting Control
  ,                                       !- Illuminance Map Name
  ,                                       !- Group Rendering Name
  ,                                       !- Thermostat Name
  No,                                     !- Use Ideal Air Loads
  {9a760ce4-662f-48db-9794-5e1c13b8d71b}; !- Humidistat Name

OS:Node,
  {1858c2fb-9304-4608-9ca3-cb8824d08c78}, !- Handle
  Node 1,                                 !- Name
  {3e1b8388-c0f0-48df-8e97-86e474027647}, !- Inlet Port
  ;                                       !- Outlet Port

OS:Connection,
  {3e1b8388-c0f0-48df-8e97-86e474027647}, !- Handle
  {989e1f1e-d426-42f8-bc2b-7989a69b3746}, !- Name
  {05a5fba5-229a-4268-b884-63cf915d84a4}, !- Source Object
  11,                                     !- Outlet Port
  {1858c2fb-9304-4608-9ca3-cb8824d08c78}, !- Target Object
  2;                                      !- Inlet Port

OS:PortList,
  {8588cdfe-4079-4d54-a455-10119f872565}, !- Handle
  {20ef28e0-3789-474d-ad90-1de22f0ac7b1}, !- Name
  {05a5fba5-229a-4268-b884-63cf915d84a4}, !- HVAC Component
  {a0eca6f5-9d86-4f35-8395-5e5c0316bbe5}; !- Port 1

OS:PortList,
  {70fc7a2b-6675-4d78-9b55-6ac6edfe8ce2}, !- Handle
  {cc757a01-d1dc-4084-9f39-da235da4de18}, !- Name
  {05a5fba5-229a-4268-b884-63cf915d84a4}, !- HVAC Component
  {d5d394e3-cb2e-418a-a5e1-e15a3ec42190}; !- Port 1

OS:Sizing:Zone,
  {c570c116-b970-4d46-b8ec-24d5774cfa1c}, !- Handle
  {05a5fba5-229a-4268-b884-63cf915d84a4}, !- Zone or ZoneList Name
  SupplyAirTemperature,                   !- Zone Cooling Design Supply Air Temperature Input Method
  14,                                     !- Zone Cooling Design Supply Air Temperature {C}
  11.11,                                  !- Zone Cooling Design Supply Air Temperature Difference {deltaC}
  SupplyAirTemperature,                   !- Zone Heating Design Supply Air Temperature Input Method
  40,                                     !- Zone Heating Design Supply Air Temperature {C}
  11.11,                                  !- Zone Heating Design Supply Air Temperature Difference {deltaC}
  0.0085,                                 !- Zone Cooling Design Supply Air Humidity Ratio {kg-H2O/kg-air}
  0.008,                                  !- Zone Heating Design Supply Air Humidity Ratio {kg-H2O/kg-air}
  ,                                       !- Zone Heating Sizing Factor
  ,                                       !- Zone Cooling Sizing Factor
  DesignDay,                              !- Cooling Design Air Flow Method
  ,                                       !- Cooling Design Air Flow Rate {m3/s}
  ,                                       !- Cooling Minimum Air Flow per Zone Floor Area {m3/s-m2}
  ,                                       !- Cooling Minimum Air Flow {m3/s}
  ,                                       !- Cooling Minimum Air Flow Fraction
  DesignDay,                              !- Heating Design Air Flow Method
  ,                                       !- Heating Design Air Flow Rate {m3/s}
  ,                                       !- Heating Maximum Air Flow per Zone Floor Area {m3/s-m2}
  ,                                       !- Heating Maximum Air Flow {m3/s}
  ,                                       !- Heating Maximum Air Flow Fraction
  ,                                       !- Design Zone Air Distribution Effectiveness in Cooling Mode
  ,                                       !- Design Zone Air Distribution Effectiveness in Heating Mode
  No,                                     !- Account for Dedicated Outdoor Air System
  NeutralSupplyAir,                       !- Dedicated Outdoor Air System Control Strategy
  autosize,                               !- Dedicated Outdoor Air Low Setpoint Temperature for Design {C}
  autosize;                               !- Dedicated Outdoor Air High Setpoint Temperature for Design {C}

OS:ZoneHVAC:EquipmentList,
  {7fc7ba61-5824-45c6-bd5e-4f45ccc0738e}, !- Handle
  Zone HVAC Equipment List 1,             !- Name
  {05a5fba5-229a-4268-b884-63cf915d84a4}, !- Thermal Zone
  {a794304d-9751-44c2-a0a9-d4e051d33e05}, !- Zone Equipment 1
  1,                                      !- Zone Equipment Cooling Sequence 1
  1;                                      !- Zone Equipment Heating or No-Load Sequence 1

OS:ThermalZone,
  {2be6ca55-93ca-46f7-a522-fb4d9f18243b}, !- Handle
  garage zone,                            !- Name
  ,                                       !- Multiplier
  ,                                       !- Ceiling Height {m}
  ,                                       !- Volume {m3}
  ,                                       !- Floor Area {m2}
  ,                                       !- Zone Inside Convection Algorithm
  ,                                       !- Zone Outside Convection Algorithm
  ,                                       !- Zone Conditioning Equipment List Name
  {7eb98d7a-cbaa-4ad9-8083-2f79675e4591}, !- Zone Air Inlet Port List
  {bbf75280-d1c8-4a69-b418-5d05e6c4a228}, !- Zone Air Exhaust Port List
  {ae48c9db-0751-4dd6-8040-00a04dd81079}, !- Zone Air Node Name
  ,                                       !- Zone Return Air Node Name
  ,                                       !- Primary Daylighting Control Name
  ,                                       !- Fraction of Zone Controlled by Primary Daylighting Control
  ,                                       !- Secondary Daylighting Control Name
  ,                                       !- Fraction of Zone Controlled by Secondary Daylighting Control
  ,                                       !- Illuminance Map Name
  ,                                       !- Group Rendering Name
  ,                                       !- Thermostat Name
  No;                                     !- Use Ideal Air Loads

OS:Node,
  {ae68cf98-6e0c-4100-bb6b-02560b4647b1}, !- Handle
  Node 2,                                 !- Name
  {ae48c9db-0751-4dd6-8040-00a04dd81079}, !- Inlet Port
  ;                                       !- Outlet Port

OS:Connection,
  {ae48c9db-0751-4dd6-8040-00a04dd81079}, !- Handle
  {ceb86c0c-81b6-4c87-a365-5d81d290d7d3}, !- Name
  {2be6ca55-93ca-46f7-a522-fb4d9f18243b}, !- Source Object
  11,                                     !- Outlet Port
  {ae68cf98-6e0c-4100-bb6b-02560b4647b1}, !- Target Object
  2;                                      !- Inlet Port

OS:PortList,
  {7eb98d7a-cbaa-4ad9-8083-2f79675e4591}, !- Handle
  {e093035e-c48c-4776-bf58-96ee51f95b50}, !- Name
  {2be6ca55-93ca-46f7-a522-fb4d9f18243b}; !- HVAC Component

OS:PortList,
  {bbf75280-d1c8-4a69-b418-5d05e6c4a228}, !- Handle
  {647ec14e-5281-487f-9c28-81f05592ea7c}, !- Name
  {2be6ca55-93ca-46f7-a522-fb4d9f18243b}; !- HVAC Component

OS:Sizing:Zone,
  {61b5ca15-2757-4c3a-84bd-881814a5931c}, !- Handle
  {2be6ca55-93ca-46f7-a522-fb4d9f18243b}, !- Zone or ZoneList Name
  SupplyAirTemperature,                   !- Zone Cooling Design Supply Air Temperature Input Method
  14,                                     !- Zone Cooling Design Supply Air Temperature {C}
  11.11,                                  !- Zone Cooling Design Supply Air Temperature Difference {deltaC}
  SupplyAirTemperature,                   !- Zone Heating Design Supply Air Temperature Input Method
  40,                                     !- Zone Heating Design Supply Air Temperature {C}
  11.11,                                  !- Zone Heating Design Supply Air Temperature Difference {deltaC}
  0.0085,                                 !- Zone Cooling Design Supply Air Humidity Ratio {kg-H2O/kg-air}
  0.008,                                  !- Zone Heating Design Supply Air Humidity Ratio {kg-H2O/kg-air}
  ,                                       !- Zone Heating Sizing Factor
  ,                                       !- Zone Cooling Sizing Factor
  DesignDay,                              !- Cooling Design Air Flow Method
  ,                                       !- Cooling Design Air Flow Rate {m3/s}
  ,                                       !- Cooling Minimum Air Flow per Zone Floor Area {m3/s-m2}
  ,                                       !- Cooling Minimum Air Flow {m3/s}
  ,                                       !- Cooling Minimum Air Flow Fraction
  DesignDay,                              !- Heating Design Air Flow Method
  ,                                       !- Heating Design Air Flow Rate {m3/s}
  ,                                       !- Heating Maximum Air Flow per Zone Floor Area {m3/s-m2}
  ,                                       !- Heating Maximum Air Flow {m3/s}
  ,                                       !- Heating Maximum Air Flow Fraction
  ,                                       !- Design Zone Air Distribution Effectiveness in Cooling Mode
  ,                                       !- Design Zone Air Distribution Effectiveness in Heating Mode
  No,                                     !- Account for Dedicated Outdoor Air System
  NeutralSupplyAir,                       !- Dedicated Outdoor Air System Control Strategy
  autosize,                               !- Dedicated Outdoor Air Low Setpoint Temperature for Design {C}
  autosize;                               !- Dedicated Outdoor Air High Setpoint Temperature for Design {C}

OS:ZoneHVAC:EquipmentList,
  {7db0838a-0d02-495b-b824-7c900ce2a518}, !- Handle
  Zone HVAC Equipment List 2,             !- Name
  {2be6ca55-93ca-46f7-a522-fb4d9f18243b}; !- Thermal Zone

OS:Space,
  {f005bf85-4ed3-4e35-803b-abc54bdb2006}, !- Handle
  garage space,                           !- Name
  {47485a95-1f2e-4372-a937-44368160c3ea}, !- Space Type Name
  ,                                       !- Default Construction Set Name
  ,                                       !- Default Schedule Set Name
  -0,                                     !- Direction of Relative North {deg}
  0,                                      !- X Origin {m}
  0,                                      !- Y Origin {m}
  0,                                      !- Z Origin {m}
  ,                                       !- Building Story Name
  {2be6ca55-93ca-46f7-a522-fb4d9f18243b}; !- Thermal Zone Name

OS:Surface,
  {1037a71e-d4eb-448c-a955-2d9cc6863488}, !- Handle
  Surface 1,                              !- Name
  Floor,                                  !- Surface Type
  {bbb6a23b-1028-4f77-bc98-1681ff432d8e}, !- Construction Name
  {f005bf85-4ed3-4e35-803b-abc54bdb2006}, !- Space Name
  Foundation,                             !- Outside Boundary Condition
  {dcaca3cc-fbaf-455c-b43c-aa5b0938649e}, !- Outside Boundary Condition Object
  NoSun,                                  !- Sun Exposure
  NoWind,                                 !- Wind Exposure
  ,                                       !- View Factor to Ground
  ,                                       !- Number of Vertices
  7.6199999993904, -3.048, 0,             !- X,Y,Z Vertex 1 {m}
  7.6199999993904, 3.048, 0,              !- X,Y,Z Vertex 2 {m}
  11.2775999993904, 3.048, 0,             !- X,Y,Z Vertex 3 {m}
  11.2775999993904, -3.048, 0;            !- X,Y,Z Vertex 4 {m}

OS:Surface,
  {80898fa7-1247-4f5c-a32c-141539e84fd6}, !- Handle
  Surface 2,                              !- Name
  Wall,                                   !- Surface Type
  {4ab6e6fb-b38e-4ef3-af57-ece7fe4f756c}, !- Construction Name
  {f005bf85-4ed3-4e35-803b-abc54bdb2006}, !- Space Name
  Surface,                                !- Outside Boundary Condition
  {8ae05598-b77a-40c6-bc93-176aec7fca40}, !- Outside Boundary Condition Object
  NoSun,                                  !- Sun Exposure
  NoWind,                                 !- Wind Exposure
  ,                                       !- View Factor to Ground
  ,                                       !- Number of Vertices
  7.6199999993904, 3.048, 2.4384,         !- X,Y,Z Vertex 1 {m}
  7.6199999993904, 3.048, 0,              !- X,Y,Z Vertex 2 {m}
  7.6199999993904, 0, 0,                  !- X,Y,Z Vertex 3 {m}
  7.6199999993904, 0, 2.4384;             !- X,Y,Z Vertex 4 {m}

OS:Surface,
  {bae1fd55-7a94-4070-ba5a-25ca86bdc403}, !- Handle
  Surface 3,                              !- Name
  Wall,                                   !- Surface Type
  {4ab6e6fb-b38e-4ef3-af57-ece7fe4f756c}, !- Construction Name
  {f005bf85-4ed3-4e35-803b-abc54bdb2006}, !- Space Name
  Surface,                                !- Outside Boundary Condition
  {01ad55fe-190c-42f4-b93e-0e4beeed16a8}, !- Outside Boundary Condition Object
  NoSun,                                  !- Sun Exposure
  NoWind,                                 !- Wind Exposure
  ,                                       !- View Factor to Ground
  ,                                       !- Number of Vertices
  11.2775999993904, 3.048, 2.4384,        !- X,Y,Z Vertex 1 {m}
  11.2775999993904, 3.048, 0,             !- X,Y,Z Vertex 2 {m}