!- NOTE: Auto-generated from /test/osw_files/SFD_HVACSizing_Equip_UnitHeater_Fixed.osw

OS:Version,
  {ef86ea73-ee6e-4a81-8a8d-7b4ff0d71b22}, !- Handle
  2.6.1;                                  !- Version Identifier

OS:Building,
  {b33a852c-4204-4001-b731-b1bde284f3ee}, !- Handle
  Building 1,                             !- Name
  ,                                       !- Building Sector Type
  22.5,                                   !- North Axis {deg}
  ,                                       !- Nominal Floor to Floor Height {m}
  ,                                       !- Space Type Name
  ,                                       !- Default Construction Set Name
  ,                                       !- Default Schedule Set Name
  4,                                      !- Standards Number of Stories
  3,                                      !- Standards Number of Above Ground Stories
  singlefamilydetached,                   !- Standards Building Type
  1;                                      !- Standards Number of Living Units

OS:Facility,
  {83dee45e-f325-4ca7-a532-cf8d309cabca}; !- Handle

OS:Site,
  {90ea46b2-cd78-486d-bc61-2124d06a20e1}, !- Handle
  Denver Intl Ap_CO_USA,                  !- Name
  39.83,                                  !- Latitude {deg}
  -104.65,                                !- Longitude {deg}
  -7,                                     !- Time Zone {hr}
  1650,                                   !- Elevation {m}
  Suburbs;                                !- Terrain

OS:SimulationControl,
  {8b1963aa-647b-4183-a15f-852381ef5813}, !- Handle
  ,                                       !- Do Zone Sizing Calculation
  ,                                       !- Do System Sizing Calculation
  ,                                       !- Do Plant Sizing Calculation
  No;                                     !- Run Simulation for Sizing Periods

OS:Sizing:Parameters,
  {54dc9ad6-161f-4a50-bbd6-f86c5cab1dd6}, !- Handle
  1.25,                                   !- Heating Sizing Factor
  1.15;                                   !- Cooling Sizing Factor

OS:Timestep,
  {82de4a65-6a31-4a1c-8f72-ac5ed57329dd}, !- Handle
  6;                                      !- Number of Timesteps per Hour

OS:ShadowCalculation,
  {33d90b23-3b1c-439f-ad3e-36fa8243a26e}, !- Handle
  20,                                     !- Calculation Frequency
  200;                                    !- Maximum Figures in Shadow Overlap Calculations

OS:HeatBalanceAlgorithm,
  {2cfba028-3e52-4b99-99a2-ac86bb0ab347}, !- Handle
  ConductionTransferFunction,             !- Algorithm
  200;                                    !- Surface Temperature Upper Limit {C}

OS:RunPeriod,
  {b3b6a141-3fe3-430b-9101-ab5ce4eb271c}, !- Handle
  Run Period 1,                           !- Name
  1,                                      !- Begin Month
  1,                                      !- Begin Day of Month
  12,                                     !- End Month
  31,                                     !- End Day of Month
  ,                                       !- Use Weather File Holidays and Special Days
  ,                                       !- Use Weather File Daylight Saving Period
  ,                                       !- Apply Weekend Holiday Rule
  ,                                       !- Use Weather File Rain Indicators
  ,                                       !- Use Weather File Snow Indicators
  ;                                       !- Number of Times Runperiod to be Repeated

OS:LifeCycleCost:Parameters,
  {aca41628-3bc9-4486-b138-7bf744061e23}, !- Handle
  ,                                       !- Analysis Type
  ,                                       !- Discounting Convention
  ,                                       !- Inflation Approach
  ,                                       !- Real Discount Rate
  ,                                       !- Nominal Discount Rate
  ,                                       !- Inflation
  ,                                       !- Base Date Month
  ,                                       !- Base Date Year
  ,                                       !- Service Date Month
  ,                                       !- Service Date Year
  ;                                       !- Length of Study Period in Years

OS:SurfaceConvectionAlgorithm:Outside,
  {6a695ca8-a05f-42e7-9395-868945319d4a}, !- Handle
  DOE-2;                                  !- Algorithm

OS:SurfaceConvectionAlgorithm:Inside,
  {8c969cc0-fb0e-462d-b0d0-815f0c6cf9e8}, !- Handle
  TARP;                                   !- Algorithm

OS:ZoneCapacitanceMultiplier:ResearchSpecial,
  {36929b6b-d8bb-4e84-b72a-5da982e55cb3}, !- Handle
  ,                                       !- Temperature Capacity Multiplier
  15,                                     !- Humidity Capacity Multiplier
  ;                                       !- Carbon Dioxide Capacity Multiplier

OS:WeatherFile,
  {121fab7a-a7e8-4f69-bc94-76f6272bd35b}, !- Handle
  Denver Intl Ap,                         !- City
  CO,                                     !- State Province Region
  USA,                                    !- Country
  TMY3,                                   !- Data Source
  725650,                                 !- WMO Number
  39.83,                                  !- Latitude {deg}
  -104.65,                                !- Longitude {deg}
  -7,                                     !- Time Zone {hr}
  1650,                                   !- Elevation {m}
  file:../tests/USA_CO_Denver_Intl_AP_725650_TMY3.epw, !- Url
  E23378AA;                               !- Checksum

OS:BuildingUnit,
  {fc0b089f-463b-4f92-8c1c-4f8f44bc15b5}, !- Handle
  EPWWeatherInfo,                         !- Name
  ,                                       !- Rendering Color
  Residential;                            !- Building Unit Type

OS:AdditionalProperties,
  {df731fd2-6d2f-4c02-ac0a-da80ea482395}, !- Handle
  {fc0b089f-463b-4f92-8c1c-4f8f44bc15b5}, !- Object Name
  EPWHeaderCity,                          !- Feature Name 1
  String,                                 !- Feature Data Type 1
  Denver Intl Ap,                         !- Feature Value 1
  EPWHeaderState,                         !- Feature Name 2
  String,                                 !- Feature Data Type 2
  CO,                                     !- Feature Value 2
  EPWHeaderCountry,                       !- Feature Name 3
  String,                                 !- Feature Data Type 3
  USA,                                    !- Feature Value 3
  EPWHeaderDataSource,                    !- Feature Name 4
  String,                                 !- Feature Data Type 4
  TMY3,                                   !- Feature Value 4
  EPWHeaderStation,                       !- Feature Name 5
  String,                                 !- Feature Data Type 5
  725650,                                 !- Feature Value 5
  EPWHeaderLatitude,                      !- Feature Name 6
  Double,                                 !- Feature Data Type 6
  39.829999999999998,                     !- Feature Value 6
  EPWHeaderLongitude,                     !- Feature Name 7
  Double,                                 !- Feature Data Type 7
  -104.65000000000001,                    !- Feature Value 7
  EPWHeaderTimezone,                      !- Feature Name 8
  Double,                                 !- Feature Data Type 8
  -7,                                     !- Feature Value 8
  EPWHeaderAltitude,                      !- Feature Name 9
  Double,                                 !- Feature Data Type 9
  5413.3858267716532,                     !- Feature Value 9
  EPWHeaderLocalPressure,                 !- Feature Name 10
  Double,                                 !- Feature Data Type 10
  0.81937567683596546,                    !- Feature Value 10
  EPWDataAnnualAvgDrybulb,                !- Feature Name 11
  Double,                                 !- Feature Data Type 11
  51.575616438356228,                     !- Feature Value 11
  EPWDataAnnualMinDrybulb,                !- Feature Name 12
  Double,                                 !- Feature Data Type 12
  -2.9200000000000017,                    !- Feature Value 12
  EPWDataAnnualMaxDrybulb,                !- Feature Name 13
  Double,                                 !- Feature Data Type 13
  104,                                    !- Feature Value 13
  EPWDataCDD50F,                          !- Feature Name 14
  Double,                                 !- Feature Data Type 14
  3072.2925000000005,                     !- Feature Value 14
  EPWDataCDD65F,                          !- Feature Name 15
  Double,                                 !- Feature Data Type 15
  883.62000000000035,                     !- Feature Value 15
  EPWDataHDD50F,                          !- Feature Name 16
  Double,                                 !- Feature Data Type 16
  2497.1925000000001,                     !- Feature Value 16
  EPWDataHDD65F,                          !- Feature Name 17
  Double,                                 !- Feature Data Type 17
  5783.5200000000013,                     !- Feature Value 17
  EPWDataAnnualAvgWindspeed,              !- Feature Name 18
  Double,                                 !- Feature Data Type 18
  3.9165296803649667,                     !- Feature Value 18
  EPWDataMonthlyAvgDrybulbs,              !- Feature Name 19
  String,                                 !- Feature Data Type 19
  33.4191935483871&#4431.90142857142857&#4443.02620967741937&#4442.48624999999999&#4459.877741935483854&#4473.57574999999997&#4472.07975806451608&#4472.70008064516134&#4466.49200000000006&#4450.079112903225806&#4437.218250000000005&#4434.582177419354835, !- Feature Value 19
  EPWDataGroundMonthlyTemps,              !- Feature Name 20
  String,                                 !- Feature Data Type 20
  44.08306285945173&#4440.89570904991865&#4440.64045432632048&#4442.153016571250646&#4448.225111118704206&#4454.268919273837525&#4459.508577937551024&#4462.82777283423508&#4463.10975667174995&#4460.41014950381947&#4455.304105212311526&#4449.445696474514364, !- Feature Value 20
  EPWDataWSF,                             !- Feature Name 21
  Double,                                 !- Feature Data Type 21
  0.58999999999999997,                    !- Feature Value 21
  EPWDataMonthlyAvgDailyHighDrybulbs,     !- Feature Name 22
  String,                                 !- Feature Data Type 22
  47.41032258064516&#4446.58642857142857&#4455.15032258064517&#4453.708&#4472.80193548387098&#4488.67600000000002&#4486.1858064516129&#4485.87225806451613&#4482.082&#4463.18064516129033&#4448.73400000000001&#4448.87935483870968, !- Feature Value 22
  EPWDataMonthlyAvgDailyLowDrybulbs,      !- Feature Name 23
  String,                                 !- Feature Data Type 23
  19.347741935483874&#4419.856428571428573&#4430.316129032258065&#4431.112&#4447.41612903225806&#4457.901999999999994&#4459.063870967741934&#4460.956774193548384&#4452.352000000000004&#4438.41612903225806&#4427.002000000000002&#4423.02903225806451, !- Feature Value 23
  EPWDesignHeatingDrybulb,                !- Feature Name 24
  Double,                                 !- Feature Data Type 24
  6.8000000000000007,                     !- Feature Value 24
  EPWDesignHeatingWindspeed,              !- Feature Name 25
  Double,                                 !- Feature Data Type 25
  12,                                     !- Feature Value 25
  EPWDesignCoolingDrybulb,                !- Feature Name 26
  Double,                                 !- Feature Data Type 26
  91.760000000000005,                     !- Feature Value 26
  EPWDesignCoolingWetbulb,                !- Feature Name 27
  Double,                                 !- Feature Data Type 27
  60.079999999999998,                     !- Feature Value 27
  EPWDesignCoolingHumidityRatio,          !- Feature Name 28
  Double,                                 !- Feature Data Type 28
  0.006050392196571398,                   !- Feature Value 28
  EPWDesignCoolingWindspeed,              !- Feature Name 29
  Double,                                 !- Feature Data Type 29
  4.2000000000000002,                     !- Feature Value 29
  EPWDesignDailyTemperatureRange,         !- Feature Name 30
  Double,                                 !- Feature Data Type 30
  27.359999999999999,                     !- Feature Value 30
  EPWDesignDehumidDrybulb,                !- Feature Name 31
  Double,                                 !- Feature Data Type 31
  67.280000000000001,                     !- Feature Value 31
  EPWDesignDehumidHumidityRatio,          !- Feature Name 32
  Double,                                 !- Feature Data Type 32
  0.012295426899271008,                   !- Feature Value 32
  EPWDesignCoolingDirectNormal,           !- Feature Name 33
  Double,                                 !- Feature Data Type 33
  985,                                    !- Feature Value 33
  EPWDesignCoolingDiffuseHorizontal,      !- Feature Name 34
  Double,                                 !- Feature Data Type 34
  84;                                     !- Feature Value 34

OS:YearDescription,
  {d2c69a86-39d8-4a84-a2a3-af2926da7fdb}, !- Handle
  ,                                       !- Calendar Year
  Monday;                                 !- Day of Week for Start Day

OS:ClimateZones,
  {c597d693-4bc9-41ea-b89e-f207e178fb84}, !- Handle
  ,                                       !- Active Institution
  ,                                       !- Active Year
  ,                                       !- Climate Zone Institution Name 1
  ,                                       !- Climate Zone Document Name 1
  ,                                       !- Climate Zone Document Year 1
  ,                                       !- Climate Zone Value 1
  Building America,                       !- Climate Zone Institution Name 2
  ,                                       !- Climate Zone Document Name 2
  0,                                      !- Climate Zone Document Year 2
  Cold;                                   !- Climate Zone Value 2

OS:Site:WaterMainsTemperature,
  {16d7cd05-dd6f-4918-bea9-64306dd3296c}, !- Handle
  Correlation,                            !- Calculation Method
  ,                                       !- Temperature Schedule Name
  10.8753424657535,                       !- Annual Average Outdoor Air Temperature {C}
  23.1524007936508;                       !- Maximum Difference In Monthly Average Outdoor Air Temperatures {deltaC}

OS:RunPeriodControl:DaylightSavingTime,
  {2c1020e0-dcf2-40f0-b400-1bccbc68e790}, !- Handle
  4/7,                                    !- Start Date
  10/26;                                  !- End Date

OS:Site:GroundTemperature:Deep,
  {f9db81d0-8d97-4eb3-906f-f91f9109684d}, !- Handle
  10.8753424657535,                       !- January Deep Ground Temperature {C}
  10.8753424657535,                       !- February Deep Ground Temperature {C}
  10.8753424657535,                       !- March Deep Ground Temperature {C}
  10.8753424657535,                       !- April Deep Ground Temperature {C}
  10.8753424657535,                       !- May Deep Ground Temperature {C}
  10.8753424657535,                       !- June Deep Ground Temperature {C}
  10.8753424657535,                       !- July Deep Ground Temperature {C}
  10.8753424657535,                       !- August Deep Ground Temperature {C}
  10.8753424657535,                       !- September Deep Ground Temperature {C}
  10.8753424657535,                       !- October Deep Ground Temperature {C}
  10.8753424657535,                       !- November Deep Ground Temperature {C}
  10.8753424657535;                       !- December Deep Ground Temperature {C}

OS:ThermalZone,
  {a44a9fbb-9f61-4b0c-bc5a-ed45533be70e}, !- Handle
  living zone,                            !- Name
  ,                                       !- Multiplier
  ,                                       !- Ceiling Height {m}
  ,                                       !- Volume {m3}
  ,                                       !- Floor Area {m2}
  ,                                       !- Zone Inside Convection Algorithm
  ,                                       !- Zone Outside Convection Algorithm
  ,                                       !- Zone Conditioning Equipment List Name
  {312b6458-91dd-4d7e-84b0-7145146062d7}, !- Zone Air Inlet Port List
  {fc3eadea-33c4-448d-aac5-20dd0fd1cc5e}, !- Zone Air Exhaust Port List
  {30ad040c-ffe4-429f-b1ab-3308a547dd9d}, !- Zone Air Node Name
  {be183b69-6c17-4ba9-a259-f9dc9203ed3c}, !- Zone Return Air Port List
  ,                                       !- Primary Daylighting Control Name
  ,                                       !- Fraction of Zone Controlled by Primary Daylighting Control
  ,                                       !- Secondary Daylighting Control Name
  ,                                       !- Fraction of Zone Controlled by Secondary Daylighting Control
  ,                                       !- Illuminance Map Name
  ,                                       !- Group Rendering Name
  {51a59c4e-c2f6-4011-b070-698f23cd12c8}, !- Thermostat Name
  No;                                     !- Use Ideal Air Loads

OS:Node,
  {b412545c-577a-464f-b6d9-26b27f131361}, !- Handle
  Node 1,                                 !- Name
  {30ad040c-ffe4-429f-b1ab-3308a547dd9d}, !- Inlet Port
  ;                                       !- Outlet Port

OS:Connection,
  {30ad040c-ffe4-429f-b1ab-3308a547dd9d}, !- Handle
  {5b666a8f-5de0-4db6-b342-c59acf1fdfdd}, !- Name
  {a44a9fbb-9f61-4b0c-bc5a-ed45533be70e}, !- Source Object
  11,                                     !- Outlet Port
  {b412545c-577a-464f-b6d9-26b27f131361}, !- Target Object
  2;                                      !- Inlet Port

OS:PortList,
  {312b6458-91dd-4d7e-84b0-7145146062d7}, !- Handle
  {e6584a13-9ae1-4495-8bc2-4fabdfceaa4c}, !- Name
  {a44a9fbb-9f61-4b0c-bc5a-ed45533be70e}, !- HVAC Component
  {71e32464-276b-4ac3-a2fe-1f71ed34880a}; !- Port 1

OS:PortList,
  {fc3eadea-33c4-448d-aac5-20dd0fd1cc5e}, !- Handle
  {ab95b4a5-1cbe-4096-a9f4-bda3d942444f}, !- Name
  {a44a9fbb-9f61-4b0c-bc5a-ed45533be70e}, !- HVAC Component
  {a15f3427-90cc-4db9-b3ce-cc36f0ca05db}; !- Port 1

OS:PortList,
  {be183b69-6c17-4ba9-a259-f9dc9203ed3c}, !- Handle
  {22532e16-a5cc-4b56-b014-f05c8a6da5e8}, !- Name
  {a44a9fbb-9f61-4b0c-bc5a-ed45533be70e}; !- HVAC Component

OS:Sizing:Zone,
  {1747dbc7-e7a5-4608-b3f0-4fa2febe7a78}, !- Handle
  {a44a9fbb-9f61-4b0c-bc5a-ed45533be70e}, !- Zone or ZoneList Name
  SupplyAirTemperature,                   !- Zone Cooling Design Supply Air Temperature Input Method
  14,                                     !- Zone Cooling Design Supply Air Temperature {C}
  11.11,                                  !- Zone Cooling Design Supply Air Temperature Difference {deltaC}
  SupplyAirTemperature,                   !- Zone Heating Design Supply Air Temperature Input Method
  40,                                     !- Zone Heating Design Supply Air Temperature {C}
  11.11,                                  !- Zone Heating Design Supply Air Temperature Difference {deltaC}
  0.0085,                                 !- Zone Cooling Design Supply Air Humidity Ratio {kg-H2O/kg-air}
  0.008,                                  !- Zone Heating Design Supply Air Humidity Ratio {kg-H2O/kg-air}
  ,                                       !- Zone Heating Sizing Factor
  ,                                       !- Zone Cooling Sizing Factor
  DesignDay,                              !- Cooling Design Air Flow Method
  ,                                       !- Cooling Design Air Flow Rate {m3/s}
  ,                                       !- Cooling Minimum Air Flow per Zone Floor Area {m3/s-m2}
  ,                                       !- Cooling Minimum Air Flow {m3/s}
  ,                                       !- Cooling Minimum Air Flow Fraction
  DesignDay,                              !- Heating Design Air Flow Method
  ,                                       !- Heating Design Air Flow Rate {m3/s}
  ,                                       !- Heating Maximum Air Flow per Zone Floor Area {m3/s-m2}
  ,                                       !- Heating Maximum Air Flow {m3/s}
  ,                                       !- Heating Maximum Air Flow Fraction
  ,                                       !- Design Zone Air Distribution Effectiveness in Cooling Mode
  ,                                       !- Design Zone Air Distribution Effectiveness in Heating Mode
  No,                                     !- Account for Dedicated Outdoor Air System
  NeutralSupplyAir,                       !- Dedicated Outdoor Air System Control Strategy
  autosize,                               !- Dedicated Outdoor Air Low Setpoint Temperature for Design {C}
  autosize;                               !- Dedicated Outdoor Air High Setpoint Temperature for Design {C}

OS:ZoneHVAC:EquipmentList,
  {c28011a3-7879-4754-ad0a-3bdfd23516f7}, !- Handle
  Zone HVAC Equipment List 1,             !- Name
  {a44a9fbb-9f61-4b0c-bc5a-ed45533be70e}, !- Thermal Zone
  {9f3fac11-fe23-432f-8272-b32a5378afc3}, !- Zone Equipment 1
  1,                                      !- Zone Equipment Cooling Sequence 1
  1;                                      !- Zone Equipment Heating or No-Load Sequence 1

OS:ThermalZone,
  {2e85fc16-075f-4cc6-96cd-ec8c78127003}, !- Handle
  garage zone,                            !- Name
  ,                                       !- Multiplier
  ,                                       !- Ceiling Height {m}
  ,                                       !- Volume {m3}
  ,                                       !- Floor Area {m2}
  ,                                       !- Zone Inside Convection Algorithm
  ,                                       !- Zone Outside Convection Algorithm
  ,                                       !- Zone Conditioning Equipment List Name
  {e1fedab2-1832-4b3b-9e8c-25d5c922a4dc}, !- Zone Air Inlet Port List
  {dac4b16e-eb39-4c02-90f0-c200fdf87c2c}, !- Zone Air Exhaust Port List
  {fc31d4ce-e4e2-43b8-83a6-e8453c573250}, !- Zone Air Node Name
  {0608b5be-396e-4394-b347-386f7af174ee}, !- Zone Return Air Port List
  ,                                       !- Primary Daylighting Control Name
  ,                                       !- Fraction of Zone Controlled by Primary Daylighting Control
  ,                                       !- Secondary Daylighting Control Name
  ,                                       !- Fraction of Zone Controlled by Secondary Daylighting Control
  ,                                       !- Illuminance Map Name
  ,                                       !- Group Rendering Name
  ,                                       !- Thermostat Name
  No;                                     !- Use Ideal Air Loads

OS:Node,
  {777b3aa4-d4d0-4659-b054-cb9edd37be93}, !- Handle
  Node 2,                                 !- Name
  {fc31d4ce-e4e2-43b8-83a6-e8453c573250}, !- Inlet Port
  ;                                       !- Outlet Port

OS:Connection,
  {fc31d4ce-e4e2-43b8-83a6-e8453c573250}, !- Handle
  {205ac61a-1e24-42f8-affe-3f2b0d1adbef}, !- Name
  {2e85fc16-075f-4cc6-96cd-ec8c78127003}, !- Source Object
  11,                                     !- Outlet Port
  {777b3aa4-d4d0-4659-b054-cb9edd37be93}, !- Target Object
  2;                                      !- Inlet Port

OS:PortList,
  {e1fedab2-1832-4b3b-9e8c-25d5c922a4dc}, !- Handle
  {d9506337-2782-4239-a7bd-52e7fe895b7f}, !- Name
  {2e85fc16-075f-4cc6-96cd-ec8c78127003}; !- HVAC Component

OS:PortList,
  {dac4b16e-eb39-4c02-90f0-c200fdf87c2c}, !- Handle
  {0ecd45a3-98ed-4f46-a6cd-b5f89c8805f9}, !- Name
  {2e85fc16-075f-4cc6-96cd-ec8c78127003}; !- HVAC Component

OS:PortList,
  {0608b5be-396e-4394-b347-386f7af174ee}, !- Handle
  {bdb40c29-fcfc-4c44-81d8-83f4aa89d257}, !- Name
  {2e85fc16-075f-4cc6-96cd-ec8c78127003}; !- HVAC Component

OS:Sizing:Zone,
  {dcf86f0a-87d6-4275-b545-a98bdb6eb647}, !- Handle
  {2e85fc16-075f-4cc6-96cd-ec8c78127003}, !- Zone or ZoneList Name
  SupplyAirTemperature,                   !- Zone Cooling Design Supply Air Temperature Input Method
  14,                                     !- Zone Cooling Design Supply Air Temperature {C}
  11.11,                                  !- Zone Cooling Design Supply Air Temperature Difference {deltaC}
  SupplyAirTemperature,                   !- Zone Heating Design Supply Air Temperature Input Method
  40,                                     !- Zone Heating Design Supply Air Temperature {C}
  11.11,                                  !- Zone Heating Design Supply Air Temperature Difference {deltaC}
  0.0085,                                 !- Zone Cooling Design Supply Air Humidity Ratio {kg-H2O/kg-air}
  0.008,                                  !- Zone Heating Design Supply Air Humidity Ratio {kg-H2O/kg-air}
  ,                                       !- Zone Heating Sizing Factor
  ,                                       !- Zone Cooling Sizing Factor
  DesignDay,                              !- Cooling Design Air Flow Method
  ,                                       !- Cooling Design Air Flow Rate {m3/s}
  ,                                       !- Cooling Minimum Air Flow per Zone Floor Area {m3/s-m2}
  ,                                       !- Cooling Minimum Air Flow {m3/s}
  ,                                       !- Cooling Minimum Air Flow Fraction
  DesignDay,                              !- Heating Design Air Flow Method
  ,                                       !- Heating Design Air Flow Rate {m3/s}
  ,                                       !- Heating Maximum Air Flow per Zone Floor Area {m3/s-m2}
  ,                                       !- Heating Maximum Air Flow {m3/s}
  ,                                       !- Heating Maximum Air Flow Fraction
  ,                                       !- Design Zone Air Distribution Effectiveness in Cooling Mode
  ,                                       !- Design Zone Air Distribution Effectiveness in Heating Mode
  No,                                     !- Account for Dedicated Outdoor Air System
  NeutralSupplyAir,                       !- Dedicated Outdoor Air System Control Strategy
  autosize,                               !- Dedicated Outdoor Air Low Setpoint Temperature for Design {C}
  autosize;                               !- Dedicated Outdoor Air High Setpoint Temperature for Design {C}

OS:ZoneHVAC:EquipmentList,
  {41421b6f-ce06-476a-abbf-41c0a4bfeb52}, !- Handle
  Zone HVAC Equipment List 2,             !- Name
  {2e85fc16-075f-4cc6-96cd-ec8c78127003}; !- Thermal Zone

OS:Space,
  {170fa930-1281-4efd-8e95-d2fc7bca46cb}, !- Handle
  garage space,                           !- Name
  {965b6820-1270-4770-a984-85282a3a9076}, !- Space Type Name
  ,                                       !- Default Construction Set Name
  ,                                       !- Default Schedule Set Name
  -0,                                     !- Direction of Relative North {deg}
  0,                                      !- X Origin {m}
  0,                                      !- Y Origin {m}
  0,                                      !- Z Origin {m}
  ,                                       !- Building Story Name
  {2e85fc16-075f-4cc6-96cd-ec8c78127003}; !- Thermal Zone Name

OS:Surface,
  {91dbcd96-2cb3-4419-a223-ee9183d81251}, !- Handle
  Surface 1,                              !- Name
  Floor,                                  !- Surface Type
  {1a9e4c5f-c031-4b6e-a2b8-ca6b151f30a7}, !- Construction Name
  {170fa930-1281-4efd-8e95-d2fc7bca46cb}, !- Space Name
  Foundation,                             !- Outside Boundary Condition
  {64d1e749-1ce9-4826-8fcd-0a54cd0165fc}, !- Outside Boundary Condition Object
  NoSun,                                  !- Sun Exposure
  NoWind,                                 !- Wind Exposure
  ,                                       !- View Factor to Ground
  ,                                       !- Number of Vertices
  7.6199999993904, -3.048, 0,             !- X,Y,Z Vertex 1 {m}
  7.6199999993904, 3.048, 0,              !- X,Y,Z Vertex 2 {m}
  11.2775999993904, 3.048, 0,             !- X,Y,Z Vertex 3 {m}
  11.2775999993904, -3.048, 0;            !- X,Y,Z Vertex 4 {m}

OS:Surface,
  {6677eb95-4cc6-4af6-98ce-ba9b794d2d85}, !- Handle
  Surface 2,                              !- Name
  Wall,                                   !- Surface Type
  {2c7ed899-8230-410b-bef5-7f4a47a266d9}, !- Construction Name
  {170fa930-1281-4efd-8e95-d2fc7bca46cb}, !- Space Name
  Surface,                                !- Outside Boundary Condition
  {336ad662-d142-4319-a80f-2b5bcf34c146}, !- Outside Boundary Condition Object
  NoSun,                                  !- Sun Exposure
  NoWind,                                 !- Wind Exposure
  ,                                       !- View Factor to Ground
  ,                                       !- Number of Vertices
  7.6199999993904, 3.048, 2.4384,         !- X,Y,Z Vertex 1 {m}
  7.6199999993904, 3.048, 0,              !- X,Y,Z Vertex 2 {m}
  7.6199999993904, 0, 0,                  !- X,Y,Z Vertex 3 {m}
  7.6199999993904, 0, 2.4384;             !- X,Y,Z Vertex 4 {m}

OS:Surface,
  {c2d43b91-acb7-418a-a3de-15af77050b2b}, !- Handle
  Surface 3,                              !- Name
  Wall,                                   !- Surface Type
  {2c7ed899-8230-410b-bef5-7f4a47a266d9}, !- Construction Name
  {170fa930-1281-4efd-8e95-d2fc7bca46cb}, !- Space Name
  Surface,                                !- Outside Boundary Condition
  {26677573-34d2-4a5e-bc45-1271377e8c97}, !- Outside Boundary Condition Object
  NoSun,                                  !- Sun Exposure