!- NOTE: Auto-generated from /test/osw_files/SFD_HVACSizing_Equip_MSHP_BB_Fixed.osw

OS:Version,
  {1e369b7f-f966-498d-b81a-47db142ec7a4}, !- Handle
  2.6.2;                                  !- Version Identifier

OS:Building,
  {c6bc489b-d71f-43a3-893f-5247fccde742}, !- Handle
  Building 1,                             !- Name
  ,                                       !- Building Sector Type
  22.5,                                   !- North Axis {deg}
  ,                                       !- Nominal Floor to Floor Height {m}
  ,                                       !- Space Type Name
  ,                                       !- Default Construction Set Name
  ,                                       !- Default Schedule Set Name
  4,                                      !- Standards Number of Stories
  3,                                      !- Standards Number of Above Ground Stories
  singlefamilydetached,                   !- Standards Building Type
  1;                                      !- Standards Number of Living Units

OS:Facility,
  {d11f2bd0-e222-4613-b5a6-0333314d7e17}; !- Handle

OS:Site,
  {05d0c568-cf0e-4321-91ed-74be4f1a57cf}, !- Handle
  Denver Intl Ap_CO_USA,                  !- Name
  39.83,                                  !- Latitude {deg}
  -104.65,                                !- Longitude {deg}
  -7,                                     !- Time Zone {hr}
  1650,                                   !- Elevation {m}
  Suburbs;                                !- Terrain

OS:SimulationControl,
  {94098d64-0790-49d5-a04e-48d81c226da2}, !- Handle
  ,                                       !- Do Zone Sizing Calculation
  ,                                       !- Do System Sizing Calculation
  ,                                       !- Do Plant Sizing Calculation
  No;                                     !- Run Simulation for Sizing Periods

OS:Sizing:Parameters,
  {809fb96e-8b09-4560-9c6e-b687f3f754d8}, !- Handle
  1.25,                                   !- Heating Sizing Factor
  1.15;                                   !- Cooling Sizing Factor

OS:Timestep,
  {32c087d4-bea4-4349-b157-f9328e4555ee}, !- Handle
  6;                                      !- Number of Timesteps per Hour

OS:ShadowCalculation,
  {1b831ef9-9b03-43b7-9f94-26908152423f}, !- Handle
  20,                                     !- Calculation Frequency
  200;                                    !- Maximum Figures in Shadow Overlap Calculations

OS:HeatBalanceAlgorithm,
  {3536fc2a-f85c-4f58-9845-9ec61c90ba22}, !- Handle
  ConductionTransferFunction,             !- Algorithm
  200;                                    !- Surface Temperature Upper Limit {C}

OS:RunPeriod,
  {90c79523-74af-494b-946c-efb25210c072}, !- Handle
  Run Period 1,                           !- Name
  1,                                      !- Begin Month
  1,                                      !- Begin Day of Month
  12,                                     !- End Month
  31,                                     !- End Day of Month
  ,                                       !- Use Weather File Holidays and Special Days
  ,                                       !- Use Weather File Daylight Saving Period
  ,                                       !- Apply Weekend Holiday Rule
  ,                                       !- Use Weather File Rain Indicators
  ,                                       !- Use Weather File Snow Indicators
  ;                                       !- Number of Times Runperiod to be Repeated

OS:LifeCycleCost:Parameters,
  {65d09086-1d68-4bbb-9c1f-2871582b69a1}, !- Handle
  ,                                       !- Analysis Type
  ,                                       !- Discounting Convention
  ,                                       !- Inflation Approach
  ,                                       !- Real Discount Rate
  ,                                       !- Nominal Discount Rate
  ,                                       !- Inflation
  ,                                       !- Base Date Month
  ,                                       !- Base Date Year
  ,                                       !- Service Date Month
  ,                                       !- Service Date Year
  ;                                       !- Length of Study Period in Years

OS:SurfaceConvectionAlgorithm:Outside,
  {ea633acd-8dfb-4c88-841d-48c053b3a738}, !- Handle
  DOE-2;                                  !- Algorithm

OS:SurfaceConvectionAlgorithm:Inside,
  {b9615d37-1417-4d5e-83ed-f5f3dac9e064}, !- Handle
  TARP;                                   !- Algorithm

OS:ZoneCapacitanceMultiplier:ResearchSpecial,
  {f17e9b2f-7830-4e95-a04c-99bcae561f10}, !- Handle
  ,                                       !- Temperature Capacity Multiplier
  15,                                     !- Humidity Capacity Multiplier
  ;                                       !- Carbon Dioxide Capacity Multiplier

OS:WeatherFile,
  {cc6478fe-7b74-4211-aa94-4ca4e336ec80}, !- Handle
  Denver Intl Ap,                         !- City
  CO,                                     !- State Province Region
  USA,                                    !- Country
  TMY3,                                   !- Data Source
  725650,                                 !- WMO Number
  39.83,                                  !- Latitude {deg}
  -104.65,                                !- Longitude {deg}
  -7,                                     !- Time Zone {hr}
  1650,                                   !- Elevation {m}
  file:../tests/USA_CO_Denver_Intl_AP_725650_TMY3.epw, !- Url
  E23378AA;                               !- Checksum

OS:BuildingUnit,
  {d1628060-9d87-4cf3-b4ad-34b02c8aa266}, !- Handle
  EPWWeatherInfo,                         !- Name
  ,                                       !- Rendering Color
  Residential;                            !- Building Unit Type

OS:AdditionalProperties,
  {8b8dfc43-291f-41b7-a1be-642a1c50f34b}, !- Handle
  {d1628060-9d87-4cf3-b4ad-34b02c8aa266}, !- Object Name
  EPWHeaderCity,                          !- Feature Name 1
  String,                                 !- Feature Data Type 1
  Denver Intl Ap,                         !- Feature Value 1
  EPWHeaderState,                         !- Feature Name 2
  String,                                 !- Feature Data Type 2
  CO,                                     !- Feature Value 2
  EPWHeaderCountry,                       !- Feature Name 3
  String,                                 !- Feature Data Type 3
  USA,                                    !- Feature Value 3
  EPWHeaderDataSource,                    !- Feature Name 4
  String,                                 !- Feature Data Type 4
  TMY3,                                   !- Feature Value 4
  EPWHeaderStation,                       !- Feature Name 5
  String,                                 !- Feature Data Type 5
  725650,                                 !- Feature Value 5
  EPWHeaderLatitude,                      !- Feature Name 6
  Double,                                 !- Feature Data Type 6
  39.829999999999998,                     !- Feature Value 6
  EPWHeaderLongitude,                     !- Feature Name 7
  Double,                                 !- Feature Data Type 7
  -104.65000000000001,                    !- Feature Value 7
  EPWHeaderTimezone,                      !- Feature Name 8
  Double,                                 !- Feature Data Type 8
  -7,                                     !- Feature Value 8
  EPWHeaderAltitude,                      !- Feature Name 9
  Double,                                 !- Feature Data Type 9
  5413.3858267716532,                     !- Feature Value 9
  EPWHeaderLocalPressure,                 !- Feature Name 10
  Double,                                 !- Feature Data Type 10
  0.81937567683596546,                    !- Feature Value 10
  EPWHeaderRecordsPerHour,                !- Feature Name 11
  Double,                                 !- Feature Data Type 11
  1,                                      !- Feature Value 11
  EPWDataAnnualAvgDrybulb,                !- Feature Name 12
  Double,                                 !- Feature Data Type 12
  51.575616438356228,                     !- Feature Value 12
  EPWDataAnnualMinDrybulb,                !- Feature Name 13
  Double,                                 !- Feature Data Type 13
  -2.9200000000000017,                    !- Feature Value 13
  EPWDataAnnualMaxDrybulb,                !- Feature Name 14
  Double,                                 !- Feature Data Type 14
  104,                                    !- Feature Value 14
  EPWDataCDD50F,                          !- Feature Name 15
  Double,                                 !- Feature Data Type 15
  3072.2925000000005,                     !- Feature Value 15
  EPWDataCDD65F,                          !- Feature Name 16
  Double,                                 !- Feature Data Type 16
  883.62000000000035,                     !- Feature Value 16
  EPWDataHDD50F,                          !- Feature Name 17
  Double,                                 !- Feature Data Type 17
  2497.1925000000001,                     !- Feature Value 17
  EPWDataHDD65F,                          !- Feature Name 18
  Double,                                 !- Feature Data Type 18
  5783.5200000000013,                     !- Feature Value 18
  EPWDataAnnualAvgWindspeed,              !- Feature Name 19
  Double,                                 !- Feature Data Type 19
  3.9165296803649667,                     !- Feature Value 19
  EPWDataMonthlyAvgDrybulbs,              !- Feature Name 20
  String,                                 !- Feature Data Type 20
  33.4191935483871&#4431.90142857142857&#4443.02620967741937&#4442.48624999999999&#4459.877741935483854&#4473.57574999999997&#4472.07975806451608&#4472.70008064516134&#4466.49200000000006&#4450.079112903225806&#4437.218250000000005&#4434.582177419354835, !- Feature Value 20
  EPWDataGroundMonthlyTemps,              !- Feature Name 21
  String,                                 !- Feature Data Type 21
  44.08306285945173&#4440.89570904991865&#4440.64045432632048&#4442.153016571250646&#4448.225111118704206&#4454.268919273837525&#4459.508577937551024&#4462.82777283423508&#4463.10975667174995&#4460.41014950381947&#4455.304105212311526&#4449.445696474514364, !- Feature Value 21
  EPWDataWSF,                             !- Feature Name 22
  Double,                                 !- Feature Data Type 22
  0.58999999999999997,                    !- Feature Value 22
  EPWDataMonthlyAvgDailyHighDrybulbs,     !- Feature Name 23
  String,                                 !- Feature Data Type 23
  47.41032258064516&#4446.58642857142857&#4455.15032258064517&#4453.708&#4472.80193548387098&#4488.67600000000002&#4486.1858064516129&#4485.87225806451613&#4482.082&#4463.18064516129033&#4448.73400000000001&#4448.87935483870968, !- Feature Value 23
  EPWDataMonthlyAvgDailyLowDrybulbs,      !- Feature Name 24
  String,                                 !- Feature Data Type 24
  19.347741935483874&#4419.856428571428573&#4430.316129032258065&#4431.112&#4447.41612903225806&#4457.901999999999994&#4459.063870967741934&#4460.956774193548384&#4452.352000000000004&#4438.41612903225806&#4427.002000000000002&#4423.02903225806451, !- Feature Value 24
  EPWDesignHeatingDrybulb,                !- Feature Name 25
  Double,                                 !- Feature Data Type 25
  6.8000000000000007,                     !- Feature Value 25
  EPWDesignHeatingWindspeed,              !- Feature Name 26
  Double,                                 !- Feature Data Type 26
  12,                                     !- Feature Value 26
  EPWDesignCoolingDrybulb,                !- Feature Name 27
  Double,                                 !- Feature Data Type 27
  91.760000000000005,                     !- Feature Value 27
  EPWDesignCoolingWetbulb,                !- Feature Name 28
  Double,                                 !- Feature Data Type 28
  60.079999999999998,                     !- Feature Value 28
  EPWDesignCoolingHumidityRatio,          !- Feature Name 29
  Double,                                 !- Feature Data Type 29
  0.006050392196571398,                   !- Feature Value 29
  EPWDesignCoolingWindspeed,              !- Feature Name 30
  Double,                                 !- Feature Data Type 30
  4.2000000000000002,                     !- Feature Value 30
  EPWDesignDailyTemperatureRange,         !- Feature Name 31
  Double,                                 !- Feature Data Type 31
  27.359999999999999,                     !- Feature Value 31
  EPWDesignDehumidDrybulb,                !- Feature Name 32
  Double,                                 !- Feature Data Type 32
  67.280000000000001,                     !- Feature Value 32
  EPWDesignDehumidHumidityRatio,          !- Feature Name 33
  Double,                                 !- Feature Data Type 33
  0.012295426899271008,                   !- Feature Value 33
  EPWDesignCoolingDirectNormal,           !- Feature Name 34
  Double,                                 !- Feature Data Type 34
  985,                                    !- Feature Value 34
  EPWDesignCoolingDiffuseHorizontal,      !- Feature Name 35
  Double,                                 !- Feature Data Type 35
  84;                                     !- Feature Value 35

OS:YearDescription,
  {d588f2eb-8fc3-4e4c-8295-e74f85212223}, !- Handle
  ,                                       !- Calendar Year
  Monday;                                 !- Day of Week for Start Day

OS:ClimateZones,
  {e901fb3a-ce01-4d59-a022-0b18aa4acd2a}, !- Handle
  ,                                       !- Active Institution
  ,                                       !- Active Year
  ,                                       !- Climate Zone Institution Name 1
  ,                                       !- Climate Zone Document Name 1
  ,                                       !- Climate Zone Document Year 1
  ,                                       !- Climate Zone Value 1
  Building America,                       !- Climate Zone Institution Name 2
  ,                                       !- Climate Zone Document Name 2
  0,                                      !- Climate Zone Document Year 2
  Cold;                                   !- Climate Zone Value 2

OS:Site:WaterMainsTemperature,
  {776ea6b1-0183-4972-8fa5-7a9195858c96}, !- Handle
  Correlation,                            !- Calculation Method
  ,                                       !- Temperature Schedule Name
  10.8753424657535,                       !- Annual Average Outdoor Air Temperature {C}
  23.1524007936508;                       !- Maximum Difference In Monthly Average Outdoor Air Temperatures {deltaC}

OS:RunPeriodControl:DaylightSavingTime,
  {5ec481d0-38ae-48ab-8d40-3acfa501460a}, !- Handle
  4/7,                                    !- Start Date
  10/26;                                  !- End Date

OS:Site:GroundTemperature:Deep,
  {75ebe6a0-5ec8-414e-80de-1af2b8ac3f24}, !- Handle
  10.8753424657535,                       !- January Deep Ground Temperature {C}
  10.8753424657535,                       !- February Deep Ground Temperature {C}
  10.8753424657535,                       !- March Deep Ground Temperature {C}
  10.8753424657535,                       !- April Deep Ground Temperature {C}
  10.8753424657535,                       !- May Deep Ground Temperature {C}
  10.8753424657535,                       !- June Deep Ground Temperature {C}
  10.8753424657535,                       !- July Deep Ground Temperature {C}
  10.8753424657535,                       !- August Deep Ground Temperature {C}
  10.8753424657535,                       !- September Deep Ground Temperature {C}
  10.8753424657535,                       !- October Deep Ground Temperature {C}
  10.8753424657535,                       !- November Deep Ground Temperature {C}
  10.8753424657535;                       !- December Deep Ground Temperature {C}

OS:ThermalZone,
  {1563164f-d5e3-45c4-aafb-79cd3efd054c}, !- Handle
  living zone,                            !- Name
  ,                                       !- Multiplier
  ,                                       !- Ceiling Height {m}
  ,                                       !- Volume {m3}
  ,                                       !- Floor Area {m2}
  ,                                       !- Zone Inside Convection Algorithm
  ,                                       !- Zone Outside Convection Algorithm
  ,                                       !- Zone Conditioning Equipment List Name
  {d7afc332-6805-4486-9fb7-21fe7a47d917}, !- Zone Air Inlet Port List
  {71fdd836-3587-452b-8adb-fd6a4bfcdbb2}, !- Zone Air Exhaust Port List
  {4d9c8151-4651-46b3-b5ff-56fa62babd24}, !- Zone Air Node Name
  {a69b468b-7e6d-4100-9c25-1f6dc6e5cd32}, !- Zone Return Air Port List
  ,                                       !- Primary Daylighting Control Name
  ,                                       !- Fraction of Zone Controlled by Primary Daylighting Control
  ,                                       !- Secondary Daylighting Control Name
  ,                                       !- Fraction of Zone Controlled by Secondary Daylighting Control
  ,                                       !- Illuminance Map Name
  ,                                       !- Group Rendering Name
  {0b710ebe-9aca-4152-93c1-9458e2a046cd}, !- Thermostat Name
  No;                                     !- Use Ideal Air Loads

OS:Node,
  {e0910de5-c908-4e23-bb01-6a7980716fae}, !- Handle
  Node 1,                                 !- Name
  {4d9c8151-4651-46b3-b5ff-56fa62babd24}, !- Inlet Port
  ;                                       !- Outlet Port

OS:Connection,
  {4d9c8151-4651-46b3-b5ff-56fa62babd24}, !- Handle
  {05e4171e-7f51-4d93-9de3-ae4bc9b9fb9c}, !- Name
  {1563164f-d5e3-45c4-aafb-79cd3efd054c}, !- Source Object
  11,                                     !- Outlet Port
  {e0910de5-c908-4e23-bb01-6a7980716fae}, !- Target Object
  2;                                      !- Inlet Port

OS:PortList,
  {d7afc332-6805-4486-9fb7-21fe7a47d917}, !- Handle
  {1ddac6d5-230b-4a03-ba8a-5f4563f99ce0}, !- Name
  {1563164f-d5e3-45c4-aafb-79cd3efd054c}, !- HVAC Component
  {5b8429b1-add9-4dee-b3d5-873ce851be25}, !- Port 1
  {cdb6a89a-dc39-49c8-857d-a54153a0bca7}; !- Port 2

OS:PortList,
  {71fdd836-3587-452b-8adb-fd6a4bfcdbb2}, !- Handle
  {7c418bd7-655d-49ce-a2b5-96b5bee2fbe7}, !- Name
  {1563164f-d5e3-45c4-aafb-79cd3efd054c}, !- HVAC Component
  {b71947d2-718b-4eb5-b19d-4c54b29e7a93}, !- Port 1
  {01122e29-ff41-4ea4-8240-8070dd179838}; !- Port 2

OS:PortList,
  {a69b468b-7e6d-4100-9c25-1f6dc6e5cd32}, !- Handle
  {9bff7000-e75c-4656-9e58-bb056d9172b9}, !- Name
  {1563164f-d5e3-45c4-aafb-79cd3efd054c}; !- HVAC Component

OS:Sizing:Zone,
  {d4f655a5-da9a-46b8-b873-6d6ec3d48c2a}, !- Handle
  {1563164f-d5e3-45c4-aafb-79cd3efd054c}, !- Zone or ZoneList Name
  SupplyAirTemperature,                   !- Zone Cooling Design Supply Air Temperature Input Method
  14,                                     !- Zone Cooling Design Supply Air Temperature {C}
  11.11,                                  !- Zone Cooling Design Supply Air Temperature Difference {deltaC}
  SupplyAirTemperature,                   !- Zone Heating Design Supply Air Temperature Input Method
  40,                                     !- Zone Heating Design Supply Air Temperature {C}
  11.11,                                  !- Zone Heating Design Supply Air Temperature Difference {deltaC}
  0.0085,                                 !- Zone Cooling Design Supply Air Humidity Ratio {kg-H2O/kg-air}
  0.008,                                  !- Zone Heating Design Supply Air Humidity Ratio {kg-H2O/kg-air}
  ,                                       !- Zone Heating Sizing Factor
  ,                                       !- Zone Cooling Sizing Factor
  DesignDay,                              !- Cooling Design Air Flow Method
  ,                                       !- Cooling Design Air Flow Rate {m3/s}
  ,                                       !- Cooling Minimum Air Flow per Zone Floor Area {m3/s-m2}
  ,                                       !- Cooling Minimum Air Flow {m3/s}
  ,                                       !- Cooling Minimum Air Flow Fraction
  DesignDay,                              !- Heating Design Air Flow Method
  ,                                       !- Heating Design Air Flow Rate {m3/s}
  ,                                       !- Heating Maximum Air Flow per Zone Floor Area {m3/s-m2}
  ,                                       !- Heating Maximum Air Flow {m3/s}
  ,                                       !- Heating Maximum Air Flow Fraction
  ,                                       !- Design Zone Air Distribution Effectiveness in Cooling Mode
  ,                                       !- Design Zone Air Distribution Effectiveness in Heating Mode
  No,                                     !- Account for Dedicated Outdoor Air System
  NeutralSupplyAir,                       !- Dedicated Outdoor Air System Control Strategy
  autosize,                               !- Dedicated Outdoor Air Low Setpoint Temperature for Design {C}
  autosize;                               !- Dedicated Outdoor Air High Setpoint Temperature for Design {C}

OS:ZoneHVAC:EquipmentList,
  {dc44d5f0-19f5-463c-a3a0-d1842162fe6c}, !- Handle
  Zone HVAC Equipment List 1,             !- Name
  {1563164f-d5e3-45c4-aafb-79cd3efd054c}, !- Thermal Zone
  SequentialLoad,                         !- Load Distribution Scheme
  {4e6c599b-2c11-4b1e-8898-6a3054212071}, !- Zone Equipment 1
  3,                                      !- Zone Equipment Cooling Sequence 1
  3,                                      !- Zone Equipment Heating or No-Load Sequence 1
  {8ae857e6-2116-47f9-a142-8947d30cefdb}, !- Zone Equipment 2
  1,                                      !- Zone Equipment Cooling Sequence 2
  1,                                      !- Zone Equipment Heating or No-Load Sequence 2
  {6d284a9b-d59c-43a1-825a-d98806009510}, !- Zone Equipment 3
  2,                                      !- Zone Equipment Cooling Sequence 3
  2;                                      !- Zone Equipment Heating or No-Load Sequence 3

OS:ThermalZone,
  {bc24d4f4-bf5e-476d-a6ee-0a4b39e61bef}, !- Handle
  garage zone,                            !- Name
  ,                                       !- Multiplier
  ,                                       !- Ceiling Height {m}
  ,                                       !- Volume {m3}
  ,                                       !- Floor Area {m2}
  ,                                       !- Zone Inside Convection Algorithm
  ,                                       !- Zone Outside Convection Algorithm
  ,                                       !- Zone Conditioning Equipment List Name
  {0867b371-4754-4acd-ac37-e0503fbd4fcf}, !- Zone Air Inlet Port List
  {f655e9ce-3d0a-423c-89f4-481fc17201c1}, !- Zone Air Exhaust Port List
  {6ca670a6-708c-4319-94fa-c1b379875d1e}, !- Zone Air Node Name
  {e0e8c258-1ade-43c5-ad98-98611eb9fa5a}, !- Zone Return Air Port List
  ,                                       !- Primary Daylighting Control Name
  ,                                       !- Fraction of Zone Controlled by Primary Daylighting Control
  ,                                       !- Secondary Daylighting Control Name
  ,                                       !- Fraction of Zone Controlled by Secondary Daylighting Control
  ,                                       !- Illuminance Map Name
  ,                                       !- Group Rendering Name
  ,                                       !- Thermostat Name
  No;                                     !- Use Ideal Air Loads

OS:Node,
  {88ea3240-eb7c-4966-81f9-04ef0e280043}, !- Handle
  Node 2,                                 !- Name
  {6ca670a6-708c-4319-94fa-c1b379875d1e}, !- Inlet Port
  ;                                       !- Outlet Port

OS:Connection,
  {6ca670a6-708c-4319-94fa-c1b379875d1e}, !- Handle
  {c8505919-958b-45cb-bff2-9219c56b0f88}, !- Name
  {bc24d4f4-bf5e-476d-a6ee-0a4b39e61bef}, !- Source Object
  11,                                     !- Outlet Port
  {88ea3240-eb7c-4966-81f9-04ef0e280043}, !- Target Object
  2;                                      !- Inlet Port

OS:PortList,
  {0867b371-4754-4acd-ac37-e0503fbd4fcf}, !- Handle
  {750527b9-e26a-4f87-a6f5-12001b3eec1e}, !- Name
  {bc24d4f4-bf5e-476d-a6ee-0a4b39e61bef}; !- HVAC Component

OS:PortList,
  {f655e9ce-3d0a-423c-89f4-481fc17201c1}, !- Handle
  {30d8ff4a-f68c-45bf-be5d-07f0cfd2ed45}, !- Name
  {bc24d4f4-bf5e-476d-a6ee-0a4b39e61bef}; !- HVAC Component

OS:PortList,
  {e0e8c258-1ade-43c5-ad98-98611eb9fa5a}, !- Handle
  {833888e8-7305-44cb-9bb5-2c180fd6ae99}, !- Name
  {bc24d4f4-bf5e-476d-a6ee-0a4b39e61bef}; !- HVAC Component

OS:Sizing:Zone,
  {d44426ce-dc7c-4331-9371-36fc7d900a9c}, !- Handle
  {bc24d4f4-bf5e-476d-a6ee-0a4b39e61bef}, !- Zone or ZoneList Name
  SupplyAirTemperature,                   !- Zone Cooling Design Supply Air Temperature Input Method
  14,                                     !- Zone Cooling Design Supply Air Temperature {C}
  11.11,                                  !- Zone Cooling Design Supply Air Temperature Difference {deltaC}
  SupplyAirTemperature,                   !- Zone Heating Design Supply Air Temperature Input Method
  40,                                     !- Zone Heating Design Supply Air Temperature {C}
  11.11,                                  !- Zone Heating Design Supply Air Temperature Difference {deltaC}
  0.0085,                                 !- Zone Cooling Design Supply Air Humidity Ratio {kg-H2O/kg-air}
  0.008,                                  !- Zone Heating Design Supply Air Humidity Ratio {kg-H2O/kg-air}
  ,                                       !- Zone Heating Sizing Factor
  ,                                       !- Zone Cooling Sizing Factor
  DesignDay,                              !- Cooling Design Air Flow Method
  ,                                       !- Cooling Design Air Flow Rate {m3/s}
  ,                                       !- Cooling Minimum Air Flow per Zone Floor Area {m3/s-m2}
  ,                                       !- Cooling Minimum Air Flow {m3/s}
  ,                                       !- Cooling Minimum Air Flow Fraction
  DesignDay,                              !- Heating Design Air Flow Method
  ,                                       !- Heating Design Air Flow Rate {m3/s}
  ,                                       !- Heating Maximum Air Flow per Zone Floor Area {m3/s-m2}
  ,                                       !- Heating Maximum Air Flow {m3/s}
  ,                                       !- Heating Maximum Air Flow Fraction
  ,                                       !- Design Zone Air Distribution Effectiveness in Cooling Mode
  ,                                       !- Design Zone Air Distribution Effectiveness in Heating Mode
  No,                                     !- Account for Dedicated Outdoor Air System
  NeutralSupplyAir,                       !- Dedicated Outdoor Air System Control Strategy
  autosize,                               !- Dedicated Outdoor Air Low Setpoint Temperature for Design {C}
  autosize;                               !- Dedicated Outdoor Air High Setpoint Temperature for Design {C}

OS:ZoneHVAC:EquipmentList,
  {eaa40e44-c6f4-41ca-baf1-9f645d23a5c0}, !- Handle
  Zone HVAC Equipment List 2,             !- Name
  {bc24d4f4-bf5e-476d-a6ee-0a4b39e61bef}; !- Thermal Zone

OS:Space,
  {79eb26a1-c075-49a8-95a4-fc912d01cb22}, !- Handle
  garage space,                           !- Name
  {506365fa-96eb-450e-98df-cd456ccc60da}, !- Space Type Name
  ,                                       !- Default Construction Set Name
  ,                                       !- Default Schedule Set Name
  -0,                                     !- Direction of Relative North {deg}
  0,                                      !- X Origin {m}
  0,                                      !- Y Origin {m}
  0,                                      !- Z Origin {m}
  ,                                       !- Building Story Name
  {bc24d4f4-bf5e-476d-a6ee-0a4b39e61bef}; !- Thermal Zone Name

OS:Surface,
  {aed114d1-296f-48e7-a04a-a3a06b1a8bbb}, !- Handle
  Surface 1,                              !- Name
  Floor,                                  !- Surface Type
  {7ac2e9d7-d5f2-4247-a362-0b251aae7730}, !- Construction Name
  {79eb26a1-c075-49a8-95a4-fc912d01cb22}, !- Space Name
  Foundation,                             !- Outside Boundary Condition
  {16278272-2aa7-46b5-bf0f-2ce429326801}, !- Outside Boundary Condition Object
  NoSun,                                  !- Sun Exposure
  NoWind,                                 !- Wind Exposure
  ,                                       !- View Factor to Ground
  ,                                       !- Number of Vertices
  7.6199999993904, -3.048, 0,             !- X,Y,Z Vertex 1 {m}
  7.6199999993904, 3.048, 0,              !- X,Y,Z Vertex 2 {m}
  11.2775999993904, 3.048, 0,             !- X,Y,Z Vertex 3 {m}
  11.2775999993904, -3.048, 0;            !- X,Y,Z Vertex 4 {m}

OS:Surface,
  {e26a6afd-2ac3-451f-8324-28f57aad9d51}, !- Handle
  Surface 2,                              !- Name
  Wall,                                   !- Surface Type
  {de2759e7-bbd0-43df-9677-493c83ccee05}, !- Construction Name
  {79eb26a1-c075-49a8-95a4-fc912d01cb22}, !- Space Name
  Surface,                                !- Outside Boundary Condition
  {328948a5-9683-4e49-82df-7d7efd37ee4f}, !- Outside Boundary Condition Object
  NoSun,                                  !- Sun Exposure
  NoWind,                                 !- Wind Exposure
  ,                                       !- View Factor to Ground