!- NOTE: Auto-generated from /test/osw_files/SFD_HVACSizing_Equip_MSHP_BB_Fixed.osw

OS:Version,
  {d67a8112-831d-4d87-b3fd-31d352fa1f87}, !- Handle
  2.6.2;                                  !- Version Identifier

OS:Building,
  {b0edba41-397a-46b3-9087-22e813880385}, !- Handle
  Building 1,                             !- Name
  ,                                       !- Building Sector Type
  22.5,                                   !- North Axis {deg}
  ,                                       !- Nominal Floor to Floor Height {m}
  ,                                       !- Space Type Name
  ,                                       !- Default Construction Set Name
  ,                                       !- Default Schedule Set Name
  4,                                      !- Standards Number of Stories
  3,                                      !- Standards Number of Above Ground Stories
  singlefamilydetached,                   !- Standards Building Type
  1;                                      !- Standards Number of Living Units

OS:Facility,
  {ac1e5141-2c2d-46f4-9574-b6cba5dc0b9f}; !- Handle

OS:Site,
  {e1f3d92b-b2f7-4332-84fc-2ffc2da34473}, !- Handle
  Denver Intl Ap_CO_USA,                  !- Name
  39.83,                                  !- Latitude {deg}
  -104.65,                                !- Longitude {deg}
  -7,                                     !- Time Zone {hr}
  1650,                                   !- Elevation {m}
  Suburbs;                                !- Terrain

OS:SimulationControl,
  {572d048c-8a84-4731-be84-b810b8217f5b}, !- Handle
  ,                                       !- Do Zone Sizing Calculation
  ,                                       !- Do System Sizing Calculation
  ,                                       !- Do Plant Sizing Calculation
  No;                                     !- Run Simulation for Sizing Periods

OS:Sizing:Parameters,
  {85319d0a-0f26-46fb-b176-a22924d8df52}, !- Handle
  1.25,                                   !- Heating Sizing Factor
  1.15;                                   !- Cooling Sizing Factor

OS:Timestep,
  {7fb649eb-29d5-4ee8-b01a-76aee8036982}, !- Handle
  6;                                      !- Number of Timesteps per Hour

OS:ShadowCalculation,
  {75cdcea7-2847-40b5-b3a4-956646ad6604}, !- Handle
  20,                                     !- Calculation Frequency
  200;                                    !- Maximum Figures in Shadow Overlap Calculations

OS:HeatBalanceAlgorithm,
  {ff81e802-d5f3-4ac3-9ae3-f98ef08d1373}, !- Handle
  ConductionTransferFunction,             !- Algorithm
  200;                                    !- Surface Temperature Upper Limit {C}

OS:RunPeriod,
  {15296b33-9ef9-413c-bbcd-65d386093a12}, !- Handle
  Run Period 1,                           !- Name
  1,                                      !- Begin Month
  1,                                      !- Begin Day of Month
  12,                                     !- End Month
  31,                                     !- End Day of Month
  ,                                       !- Use Weather File Holidays and Special Days
  ,                                       !- Use Weather File Daylight Saving Period
  ,                                       !- Apply Weekend Holiday Rule
  ,                                       !- Use Weather File Rain Indicators
  ,                                       !- Use Weather File Snow Indicators
  ;                                       !- Number of Times Runperiod to be Repeated

OS:LifeCycleCost:Parameters,
  {fae298da-09c5-483f-8197-de58a0fd0bfa}, !- Handle
  ,                                       !- Analysis Type
  ,                                       !- Discounting Convention
  ,                                       !- Inflation Approach
  ,                                       !- Real Discount Rate
  ,                                       !- Nominal Discount Rate
  ,                                       !- Inflation
  ,                                       !- Base Date Month
  ,                                       !- Base Date Year
  ,                                       !- Service Date Month
  ,                                       !- Service Date Year
  ;                                       !- Length of Study Period in Years

OS:SurfaceConvectionAlgorithm:Outside,
  {a0678da8-c519-440a-9061-b86cda9f3513}, !- Handle
  DOE-2;                                  !- Algorithm

OS:SurfaceConvectionAlgorithm:Inside,
  {dad74f5d-db0a-4bfe-829d-e0b640b1b35f}, !- Handle
  TARP;                                   !- Algorithm

OS:ZoneCapacitanceMultiplier:ResearchSpecial,
  {492a39fd-828c-4047-b9a2-727e50b573b1}, !- Handle
  ,                                       !- Temperature Capacity Multiplier
  15,                                     !- Humidity Capacity Multiplier
  ;                                       !- Carbon Dioxide Capacity Multiplier

OS:WeatherFile,
  {3bd9596a-18cc-4551-97dd-0d6e4d5ffe33}, !- Handle
  Denver Intl Ap,                         !- City
  CO,                                     !- State Province Region
  USA,                                    !- Country
  TMY3,                                   !- Data Source
  725650,                                 !- WMO Number
  39.83,                                  !- Latitude {deg}
  -104.65,                                !- Longitude {deg}
  -7,                                     !- Time Zone {hr}
  1650,                                   !- Elevation {m}
  file:../tests/USA_CO_Denver_Intl_AP_725650_TMY3.epw, !- Url
  E23378AA;                               !- Checksum

OS:AdditionalProperties,
  {be8621fd-2598-4612-bd19-fdcdcc604696}, !- Handle
  {3bd9596a-18cc-4551-97dd-0d6e4d5ffe33}, !- Object Name
  EPWHeaderCity,                          !- Feature Name 1
  String,                                 !- Feature Data Type 1
  Denver Intl Ap,                         !- Feature Value 1
  EPWHeaderState,                         !- Feature Name 2
  String,                                 !- Feature Data Type 2
  CO,                                     !- Feature Value 2
  EPWHeaderCountry,                       !- Feature Name 3
  String,                                 !- Feature Data Type 3
  USA,                                    !- Feature Value 3
  EPWHeaderDataSource,                    !- Feature Name 4
  String,                                 !- Feature Data Type 4
  TMY3,                                   !- Feature Value 4
  EPWHeaderStation,                       !- Feature Name 5
  String,                                 !- Feature Data Type 5
  725650,                                 !- Feature Value 5
  EPWHeaderLatitude,                      !- Feature Name 6
  Double,                                 !- Feature Data Type 6
  39.829999999999998,                     !- Feature Value 6
  EPWHeaderLongitude,                     !- Feature Name 7
  Double,                                 !- Feature Data Type 7
  -104.65000000000001,                    !- Feature Value 7
  EPWHeaderTimezone,                      !- Feature Name 8
  Double,                                 !- Feature Data Type 8
  -7,                                     !- Feature Value 8
  EPWHeaderAltitude,                      !- Feature Name 9
  Double,                                 !- Feature Data Type 9
  5413.3858267716532,                     !- Feature Value 9
  EPWHeaderLocalPressure,                 !- Feature Name 10
  Double,                                 !- Feature Data Type 10
  0.81937567683596546,                    !- Feature Value 10
  EPWHeaderRecordsPerHour,                !- Feature Name 11
  Double,                                 !- Feature Data Type 11
  1,                                      !- Feature Value 11
  EPWDataAnnualAvgDrybulb,                !- Feature Name 12
  Double,                                 !- Feature Data Type 12
  51.575616438356228,                     !- Feature Value 12
  EPWDataAnnualMinDrybulb,                !- Feature Name 13
  Double,                                 !- Feature Data Type 13
  -2.9200000000000017,                    !- Feature Value 13
  EPWDataAnnualMaxDrybulb,                !- Feature Name 14
  Double,                                 !- Feature Data Type 14
  104,                                    !- Feature Value 14
  EPWDataCDD50F,                          !- Feature Name 15
  Double,                                 !- Feature Data Type 15
  3072.2925000000005,                     !- Feature Value 15
  EPWDataCDD65F,                          !- Feature Name 16
  Double,                                 !- Feature Data Type 16
  883.62000000000035,                     !- Feature Value 16
  EPWDataHDD50F,                          !- Feature Name 17
  Double,                                 !- Feature Data Type 17
  2497.1925000000001,                     !- Feature Value 17
  EPWDataHDD65F,                          !- Feature Name 18
  Double,                                 !- Feature Data Type 18
  5783.5200000000013,                     !- Feature Value 18
  EPWDataAnnualAvgWindspeed,              !- Feature Name 19
  Double,                                 !- Feature Data Type 19
  3.9165296803649667,                     !- Feature Value 19
  EPWDataMonthlyAvgDrybulbs,              !- Feature Name 20
  String,                                 !- Feature Data Type 20
  33.4191935483871&#4431.90142857142857&#4443.02620967741937&#4442.48624999999999&#4459.877741935483854&#4473.57574999999997&#4472.07975806451608&#4472.70008064516134&#4466.49200000000006&#4450.079112903225806&#4437.218250000000005&#4434.582177419354835, !- Feature Value 20
  EPWDataGroundMonthlyTemps,              !- Feature Name 21
  String,                                 !- Feature Data Type 21
  44.08306285945173&#4440.89570904991865&#4440.64045432632048&#4442.153016571250646&#4448.225111118704206&#4454.268919273837525&#4459.508577937551024&#4462.82777283423508&#4463.10975667174995&#4460.41014950381947&#4455.304105212311526&#4449.445696474514364, !- Feature Value 21
  EPWDataWSF,                             !- Feature Name 22
  Double,                                 !- Feature Data Type 22
  0.58999999999999997,                    !- Feature Value 22
  EPWDataMonthlyAvgDailyHighDrybulbs,     !- Feature Name 23
  String,                                 !- Feature Data Type 23
  47.41032258064516&#4446.58642857142857&#4455.15032258064517&#4453.708&#4472.80193548387098&#4488.67600000000002&#4486.1858064516129&#4485.87225806451613&#4482.082&#4463.18064516129033&#4448.73400000000001&#4448.87935483870968, !- Feature Value 23
  EPWDataMonthlyAvgDailyLowDrybulbs,      !- Feature Name 24
  String,                                 !- Feature Data Type 24
  19.347741935483874&#4419.856428571428573&#4430.316129032258065&#4431.112&#4447.41612903225806&#4457.901999999999994&#4459.063870967741934&#4460.956774193548384&#4452.352000000000004&#4438.41612903225806&#4427.002000000000002&#4423.02903225806451, !- Feature Value 24
  EPWDesignHeatingDrybulb,                !- Feature Name 25
  Double,                                 !- Feature Data Type 25
  6.8000000000000007,                     !- Feature Value 25
  EPWDesignHeatingWindspeed,              !- Feature Name 26
  Double,                                 !- Feature Data Type 26
  12,                                     !- Feature Value 26
  EPWDesignCoolingDrybulb,                !- Feature Name 27
  Double,                                 !- Feature Data Type 27
  91.760000000000005,                     !- Feature Value 27
  EPWDesignCoolingWetbulb,                !- Feature Name 28
  Double,                                 !- Feature Data Type 28
  60.079999999999998,                     !- Feature Value 28
  EPWDesignCoolingHumidityRatio,          !- Feature Name 29
  Double,                                 !- Feature Data Type 29
  0.006050392196571398,                   !- Feature Value 29
  EPWDesignCoolingWindspeed,              !- Feature Name 30
  Double,                                 !- Feature Data Type 30
  4.2000000000000002,                     !- Feature Value 30
  EPWDesignDailyTemperatureRange,         !- Feature Name 31
  Double,                                 !- Feature Data Type 31
  27.359999999999999,                     !- Feature Value 31
  EPWDesignDehumidDrybulb,                !- Feature Name 32
  Double,                                 !- Feature Data Type 32
  67.280000000000001,                     !- Feature Value 32
  EPWDesignDehumidHumidityRatio,          !- Feature Name 33
  Double,                                 !- Feature Data Type 33
  0.012295426899271008,                   !- Feature Value 33
  EPWDesignCoolingDirectNormal,           !- Feature Name 34
  Double,                                 !- Feature Data Type 34
  985,                                    !- Feature Value 34
  EPWDesignCoolingDiffuseHorizontal,      !- Feature Name 35
  Double,                                 !- Feature Data Type 35
  84;                                     !- Feature Value 35

OS:YearDescription,
  {d0b505ff-6485-43a1-b0e4-ac03dd597ea9}, !- Handle
  ,                                       !- Calendar Year
  Monday;                                 !- Day of Week for Start Day

OS:ClimateZones,
  {35c50de9-5c74-4abd-81a1-4d88ae652872}, !- Handle
  ,                                       !- Active Institution
  ,                                       !- Active Year
  ,                                       !- Climate Zone Institution Name 1
  ,                                       !- Climate Zone Document Name 1
  ,                                       !- Climate Zone Document Year 1
  ,                                       !- Climate Zone Value 1
  Building America,                       !- Climate Zone Institution Name 2
  ,                                       !- Climate Zone Document Name 2
  0,                                      !- Climate Zone Document Year 2
  Cold;                                   !- Climate Zone Value 2

OS:Site:WaterMainsTemperature,
  {d19be18f-679a-4ce5-aed5-10be41fbcd74}, !- Handle
  Correlation,                            !- Calculation Method
  ,                                       !- Temperature Schedule Name
  10.8753424657535,                       !- Annual Average Outdoor Air Temperature {C}
  23.1524007936508;                       !- Maximum Difference In Monthly Average Outdoor Air Temperatures {deltaC}

OS:RunPeriodControl:DaylightSavingTime,
  {402318dd-0dde-4a25-99a5-a0021f9f1932}, !- Handle
  4/7,                                    !- Start Date
  10/26;                                  !- End Date

OS:Site:GroundTemperature:Deep,
  {ae903486-d67b-4a1f-9454-8ad5c89fa923}, !- Handle
  10.8753424657535,                       !- January Deep Ground Temperature {C}
  10.8753424657535,                       !- February Deep Ground Temperature {C}
  10.8753424657535,                       !- March Deep Ground Temperature {C}
  10.8753424657535,                       !- April Deep Ground Temperature {C}
  10.8753424657535,                       !- May Deep Ground Temperature {C}
  10.8753424657535,                       !- June Deep Ground Temperature {C}
  10.8753424657535,                       !- July Deep Ground Temperature {C}
  10.8753424657535,                       !- August Deep Ground Temperature {C}
  10.8753424657535,                       !- September Deep Ground Temperature {C}
  10.8753424657535,                       !- October Deep Ground Temperature {C}
  10.8753424657535,                       !- November Deep Ground Temperature {C}
  10.8753424657535;                       !- December Deep Ground Temperature {C}

OS:ThermalZone,
  {93846a96-0fd9-4a5f-bffe-f39ad338334f}, !- Handle
  living zone,                            !- Name
  ,                                       !- Multiplier
  ,                                       !- Ceiling Height {m}
  ,                                       !- Volume {m3}
  ,                                       !- Floor Area {m2}
  ,                                       !- Zone Inside Convection Algorithm
  ,                                       !- Zone Outside Convection Algorithm
  ,                                       !- Zone Conditioning Equipment List Name
  {120f4e13-69b9-4634-8c3b-928aed244237}, !- Zone Air Inlet Port List
  {c75500c0-cd41-49c0-8c72-a8fe7b81a2e9}, !- Zone Air Exhaust Port List
  {6ba39cc2-c664-4939-95a7-06b57bf3822b}, !- Zone Air Node Name
  {a39ad3cf-2959-4661-ae02-ed8a300a5573}, !- Zone Return Air Port List
  ,                                       !- Primary Daylighting Control Name
  ,                                       !- Fraction of Zone Controlled by Primary Daylighting Control
  ,                                       !- Secondary Daylighting Control Name
  ,                                       !- Fraction of Zone Controlled by Secondary Daylighting Control
  ,                                       !- Illuminance Map Name
  ,                                       !- Group Rendering Name
  {cc0dc8b1-2a24-4b0f-bc9c-ca012e4832fb}, !- Thermostat Name
  No;                                     !- Use Ideal Air Loads

OS:Node,
  {775ecfd1-3130-4c21-a3e1-1f92f2d09c19}, !- Handle
  Node 1,                                 !- Name
  {6ba39cc2-c664-4939-95a7-06b57bf3822b}, !- Inlet Port
  ;                                       !- Outlet Port

OS:Connection,
  {6ba39cc2-c664-4939-95a7-06b57bf3822b}, !- Handle
  {3b1daf03-f86b-453a-bf80-f5f170619cfe}, !- Name
  {93846a96-0fd9-4a5f-bffe-f39ad338334f}, !- Source Object
  11,                                     !- Outlet Port
  {775ecfd1-3130-4c21-a3e1-1f92f2d09c19}, !- Target Object
  2;                                      !- Inlet Port

OS:PortList,
  {120f4e13-69b9-4634-8c3b-928aed244237}, !- Handle
  {904c23fb-b826-4fa8-bdf4-cec67c467a33}, !- Name
  {93846a96-0fd9-4a5f-bffe-f39ad338334f}, !- HVAC Component
  {12be943c-d67e-41a9-8567-74f4fe7d99eb}, !- Port 1
  {5811e42f-a24d-41b3-aaab-4d8f78e19c3d}; !- Port 2

OS:PortList,
  {c75500c0-cd41-49c0-8c72-a8fe7b81a2e9}, !- Handle
  {f19fe58d-ad6e-4e69-9591-f4af8891059d}, !- Name
  {93846a96-0fd9-4a5f-bffe-f39ad338334f}; !- HVAC Component

OS:PortList,
  {a39ad3cf-2959-4661-ae02-ed8a300a5573}, !- Handle
  {677bd50b-9eb9-409d-9f30-19ed65e1a748}, !- Name
  {93846a96-0fd9-4a5f-bffe-f39ad338334f}, !- HVAC Component
  {de01fd48-c696-4e08-9f9c-23e993190297}, !- Port 1
  {d67b6081-9ed4-4c02-8e33-eb2e26460b54}; !- Port 2

OS:Sizing:Zone,
  {a86f8493-8299-4015-aa65-93f9bd59d191}, !- Handle
  {93846a96-0fd9-4a5f-bffe-f39ad338334f}, !- Zone or ZoneList Name
  SupplyAirTemperature,                   !- Zone Cooling Design Supply Air Temperature Input Method
  14,                                     !- Zone Cooling Design Supply Air Temperature {C}
  11.11,                                  !- Zone Cooling Design Supply Air Temperature Difference {deltaC}
  SupplyAirTemperature,                   !- Zone Heating Design Supply Air Temperature Input Method
  40,                                     !- Zone Heating Design Supply Air Temperature {C}
  11.11,                                  !- Zone Heating Design Supply Air Temperature Difference {deltaC}
  0.0085,                                 !- Zone Cooling Design Supply Air Humidity Ratio {kg-H2O/kg-air}
  0.008,                                  !- Zone Heating Design Supply Air Humidity Ratio {kg-H2O/kg-air}
  ,                                       !- Zone Heating Sizing Factor
  ,                                       !- Zone Cooling Sizing Factor
  DesignDay,                              !- Cooling Design Air Flow Method
  ,                                       !- Cooling Design Air Flow Rate {m3/s}
  ,                                       !- Cooling Minimum Air Flow per Zone Floor Area {m3/s-m2}
  ,                                       !- Cooling Minimum Air Flow {m3/s}
  ,                                       !- Cooling Minimum Air Flow Fraction
  DesignDay,                              !- Heating Design Air Flow Method
  ,                                       !- Heating Design Air Flow Rate {m3/s}
  ,                                       !- Heating Maximum Air Flow per Zone Floor Area {m3/s-m2}
  ,                                       !- Heating Maximum Air Flow {m3/s}
  ,                                       !- Heating Maximum Air Flow Fraction
  ,                                       !- Design Zone Air Distribution Effectiveness in Cooling Mode
  ,                                       !- Design Zone Air Distribution Effectiveness in Heating Mode
  No,                                     !- Account for Dedicated Outdoor Air System
  NeutralSupplyAir,                       !- Dedicated Outdoor Air System Control Strategy
  autosize,                               !- Dedicated Outdoor Air Low Setpoint Temperature for Design {C}
  autosize;                               !- Dedicated Outdoor Air High Setpoint Temperature for Design {C}

OS:ZoneHVAC:EquipmentList,
  {4e303950-7a9b-482a-b0e1-554d04c462ce}, !- Handle
  Zone HVAC Equipment List 1,             !- Name
  {93846a96-0fd9-4a5f-bffe-f39ad338334f}, !- Thermal Zone
  SequentialLoad,                         !- Load Distribution Scheme
  {ad451d79-2cd8-4921-a78a-309156ffc63c}, !- Zone Equipment 1
  1,                                      !- Zone Equipment Cooling Sequence 1
  1,                                      !- Zone Equipment Heating or No-Load Sequence 1
  {d3544612-9afc-4b01-9b8a-265af1ce3662}, !- Zone Equipment 2
  2,                                      !- Zone Equipment Cooling Sequence 2
  2;                                      !- Zone Equipment Heating or No-Load Sequence 2

OS:ThermalZone,
  {c365d518-ddef-40c9-a173-c354fded0267}, !- Handle
  garage zone,                            !- Name
  ,                                       !- Multiplier
  ,                                       !- Ceiling Height {m}
  ,                                       !- Volume {m3}
  ,                                       !- Floor Area {m2}
  ,                                       !- Zone Inside Convection Algorithm
  ,                                       !- Zone Outside Convection Algorithm
  ,                                       !- Zone Conditioning Equipment List Name
  {5059565f-c4df-40e4-8b64-41b9e5637edd}, !- Zone Air Inlet Port List
  {13aee2f8-9b2d-4f09-87fc-9053fa0527de}, !- Zone Air Exhaust Port List
  {c3b903ac-fec1-4abb-b256-a0b87f7492a8}, !- Zone Air Node Name
  {5c98a54e-d205-4d6e-9284-c1e107f5a49f}, !- Zone Return Air Port List
  ,                                       !- Primary Daylighting Control Name
  ,                                       !- Fraction of Zone Controlled by Primary Daylighting Control
  ,                                       !- Secondary Daylighting Control Name
  ,                                       !- Fraction of Zone Controlled by Secondary Daylighting Control
  ,                                       !- Illuminance Map Name
  ,                                       !- Group Rendering Name
  ,                                       !- Thermostat Name
  No;                                     !- Use Ideal Air Loads

OS:Node,
  {ff1ef895-560b-4f0f-ac35-2ea409a0675a}, !- Handle
  Node 2,                                 !- Name
  {c3b903ac-fec1-4abb-b256-a0b87f7492a8}, !- Inlet Port
  ;                                       !- Outlet Port

OS:Connection,
  {c3b903ac-fec1-4abb-b256-a0b87f7492a8}, !- Handle
  {b53173ec-e587-4678-8367-bad1179e79a3}, !- Name
  {c365d518-ddef-40c9-a173-c354fded0267}, !- Source Object
  11,                                     !- Outlet Port
  {ff1ef895-560b-4f0f-ac35-2ea409a0675a}, !- Target Object
  2;                                      !- Inlet Port

OS:PortList,
  {5059565f-c4df-40e4-8b64-41b9e5637edd}, !- Handle
  {b9fd85b1-419b-4d98-b006-4593d44afb65}, !- Name
  {c365d518-ddef-40c9-a173-c354fded0267}; !- HVAC Component

OS:PortList,
  {13aee2f8-9b2d-4f09-87fc-9053fa0527de}, !- Handle
  {c53bae04-9ea8-481d-8cf1-9b5684b90a1f}, !- Name
  {c365d518-ddef-40c9-a173-c354fded0267}; !- HVAC Component

OS:PortList,
  {5c98a54e-d205-4d6e-9284-c1e107f5a49f}, !- Handle
  {ff70b722-5372-479d-a153-0021ab0d058d}, !- Name
  {c365d518-ddef-40c9-a173-c354fded0267}; !- HVAC Component

OS:Sizing:Zone,
  {2e5c06e4-3ab2-4589-9340-8bdb8189c652}, !- Handle
  {c365d518-ddef-40c9-a173-c354fded0267}, !- Zone or ZoneList Name
  SupplyAirTemperature,                   !- Zone Cooling Design Supply Air Temperature Input Method
  14,                                     !- Zone Cooling Design Supply Air Temperature {C}
  11.11,                                  !- Zone Cooling Design Supply Air Temperature Difference {deltaC}
  SupplyAirTemperature,                   !- Zone Heating Design Supply Air Temperature Input Method
  40,                                     !- Zone Heating Design Supply Air Temperature {C}
  11.11,                                  !- Zone Heating Design Supply Air Temperature Difference {deltaC}
  0.0085,                                 !- Zone Cooling Design Supply Air Humidity Ratio {kg-H2O/kg-air}
  0.008,                                  !- Zone Heating Design Supply Air Humidity Ratio {kg-H2O/kg-air}
  ,                                       !- Zone Heating Sizing Factor
  ,                                       !- Zone Cooling Sizing Factor
  DesignDay,                              !- Cooling Design Air Flow Method
  ,                                       !- Cooling Design Air Flow Rate {m3/s}
  ,                                       !- Cooling Minimum Air Flow per Zone Floor Area {m3/s-m2}
  ,                                       !- Cooling Minimum Air Flow {m3/s}
  ,                                       !- Cooling Minimum Air Flow Fraction
  DesignDay,                              !- Heating Design Air Flow Method
  ,                                       !- Heating Design Air Flow Rate {m3/s}
  ,                                       !- Heating Maximum Air Flow per Zone Floor Area {m3/s-m2}
  ,                                       !- Heating Maximum Air Flow {m3/s}
  ,                                       !- Heating Maximum Air Flow Fraction
  ,                                       !- Design Zone Air Distribution Effectiveness in Cooling Mode
  ,                                       !- Design Zone Air Distribution Effectiveness in Heating Mode
  No,                                     !- Account for Dedicated Outdoor Air System
  NeutralSupplyAir,                       !- Dedicated Outdoor Air System Control Strategy
  autosize,                               !- Dedicated Outdoor Air Low Setpoint Temperature for Design {C}
  autosize;                               !- Dedicated Outdoor Air High Setpoint Temperature for Design {C}

OS:ZoneHVAC:EquipmentList,
  {e3723c37-08ab-4ec5-b560-5197021ee555}, !- Handle
  Zone HVAC Equipment List 2,             !- Name
  {c365d518-ddef-40c9-a173-c354fded0267}; !- Thermal Zone

OS:Space,
  {bc0903bb-833a-4808-b0c9-44a5dec9a8f6}, !- Handle
  garage space,                           !- Name
  {d29c3ae9-d6ce-4db1-961b-21be068958f2}, !- Space Type Name
  ,                                       !- Default Construction Set Name
  ,                                       !- Default Schedule Set Name
  -0,                                     !- Direction of Relative North {deg}
  0,                                      !- X Origin {m}
  0,                                      !- Y Origin {m}
  0,                                      !- Z Origin {m}
  ,                                       !- Building Story Name
  {c365d518-ddef-40c9-a173-c354fded0267}; !- Thermal Zone Name

OS:Surface,
  {778e4656-b663-412d-a089-7a2e6261642b}, !- Handle
  Surface 1,                              !- Name
  Floor,                                  !- Surface Type
  {3156d2dd-6376-4aec-b28b-7fd831412eaa}, !- Construction Name
  {bc0903bb-833a-4808-b0c9-44a5dec9a8f6}, !- Space Name
  Foundation,                             !- Outside Boundary Condition
  {0b052ab9-662b-4f89-954d-4e61a815715b}, !- Outside Boundary Condition Object
  NoSun,                                  !- Sun Exposure
  NoWind,                                 !- Wind Exposure
  ,                                       !- View Factor to Ground
  ,                                       !- Number of Vertices
  7.6199999993904, -3.048, 0,             !- X,Y,Z Vertex 1 {m}
  7.6199999993904, 3.048, 0,              !- X,Y,Z Vertex 2 {m}
  11.2775999993904, 3.048, 0,             !- X,Y,Z Vertex 3 {m}
  11.2775999993904, -3.048, 0;            !- X,Y,Z Vertex 4 {m}

OS:Surface,
  {74af5f4f-242d-4bec-a8a6-5b894e0d0fa3}, !- Handle
  Surface 2,                              !- Name
  Wall,                                   !- Surface Type
  {a0c59138-1dfb-4f5e-841d-45ae068f5486}, !- Construction Name
  {bc0903bb-833a-4808-b0c9-44a5dec9a8f6}, !- Space Name
  Surface,                                !- Outside Boundary Condition
  {5cf0889b-43e0-4f3a-a10d-4fd312933c82}, !- Outside Boundary Condition Object
  NoSun,                                  !- Sun Exposure
  NoWind,                                 !- Wind Exposure
  ,                                       !- View Factor to Ground
  ,                                       !- Number of Vertices
  7.6199999993904, 3.048, 2.4384,         !- X,Y,Z Vertex 1 {m}
  7.6199999993904, 3.048, 0,              !- X,Y,Z Vertex 2 {m}
  7.6199999993904, 0, 0,                  !- X,Y,Z Vertex 3 {m}
  7.6199999993904, 0, 2.4384;             !- X,Y,Z Vertex 4 {m}

OS:Surface,
  {8a1cb956-92e4-463b-a16a-4c34701e4c52}, !- Handle
  Surface 3,                              !- Name
  Wall,                                   !- Surface Type