!- NOTE: Auto-generated from /test/osw_files/SFD_HVACSizing_Load_1story_PB_UA_Vented_ASHP_DuctsInPB.osw

OS:Version,
  {e0efcdd4-e28a-4a93-99c8-566a6a6449f7}, !- Handle
  2.6.0;                                  !- Version Identifier

OS:Building,
  {fcb19920-2e0e-4d39-b4e4-2c0deb5c4c92}, !- Handle
  Building 1,                             !- Name
  ,                                       !- Building Sector Type
  22.5,                                   !- North Axis {deg}
  ,                                       !- Nominal Floor to Floor Height {m}
  ,                                       !- Space Type Name
  ,                                       !- Default Construction Set Name
  ,                                       !- Default Schedule Set Name
  1,                                      !- Standards Number of Stories
  1,                                      !- Standards Number of Above Ground Stories
  singlefamilydetached,                   !- Standards Building Type
  1;                                      !- Standards Number of Living Units

OS:Facility,
  {99900405-3c0e-4d22-8676-f84a44f301b1}; !- Handle

OS:Site,
  {1df88b1d-7dfb-4cf0-b96c-b087fbaa4737}, !- Handle
  Denver Intl Ap_CO_USA,                  !- Name
  39.83,                                  !- Latitude {deg}
  -104.65,                                !- Longitude {deg}
  -7,                                     !- Time Zone {hr}
  1650,                                   !- Elevation {m}
  Suburbs;                                !- Terrain

OS:SimulationControl,
  {003c6db2-3929-4662-9980-232dd31c8b3e}, !- Handle
  ,                                       !- Do Zone Sizing Calculation
  ,                                       !- Do System Sizing Calculation
  ,                                       !- Do Plant Sizing Calculation
  No;                                     !- Run Simulation for Sizing Periods

OS:Sizing:Parameters,
  {6b7e1dc5-cc6c-4b40-9eaf-c55a5f929f28}, !- Handle
  1.25,                                   !- Heating Sizing Factor
  1.15;                                   !- Cooling Sizing Factor

OS:Timestep,
  {03cbf5ac-4801-46c8-9aa6-207b59fa2035}, !- Handle
  6;                                      !- Number of Timesteps per Hour

OS:ShadowCalculation,
  {447878e0-3835-4618-8b01-a4528fb1ffd6}, !- Handle
  20,                                     !- Calculation Frequency
  200;                                    !- Maximum Figures in Shadow Overlap Calculations

OS:HeatBalanceAlgorithm,
  {b24b14cc-949d-4246-8d34-541cc8f7e947}, !- Handle
  ConductionTransferFunction,             !- Algorithm
  200;                                    !- Surface Temperature Upper Limit {C}

OS:RunPeriod,
  {356bd2a9-32e8-4d9b-90dd-5451211afefc}, !- Handle
  Run Period 1,                           !- Name
  1,                                      !- Begin Month
  1,                                      !- Begin Day of Month
  12,                                     !- End Month
  31,                                     !- End Day of Month
  ,                                       !- Use Weather File Holidays and Special Days
  ,                                       !- Use Weather File Daylight Saving Period
  ,                                       !- Apply Weekend Holiday Rule
  ,                                       !- Use Weather File Rain Indicators
  ,                                       !- Use Weather File Snow Indicators
  ;                                       !- Number of Times Runperiod to be Repeated

OS:LifeCycleCost:Parameters,
  {cd524d3c-89ac-43d2-b569-b29d8a9e7a06}, !- Handle
  ,                                       !- Analysis Type
  ,                                       !- Discounting Convention
  ,                                       !- Inflation Approach
  ,                                       !- Real Discount Rate
  ,                                       !- Nominal Discount Rate
  ,                                       !- Inflation
  ,                                       !- Base Date Month
  ,                                       !- Base Date Year
  ,                                       !- Service Date Month
  ,                                       !- Service Date Year
  ;                                       !- Length of Study Period in Years

OS:SurfaceConvectionAlgorithm:Outside,
  {d87eaf38-83a6-410f-8cd0-789a1059d568}, !- Handle
  DOE-2;                                  !- Algorithm

OS:SurfaceConvectionAlgorithm:Inside,
  {5e3d1684-7668-4cc5-9c08-16577fdbf727}, !- Handle
  TARP;                                   !- Algorithm

OS:ZoneCapacitanceMultiplier:ResearchSpecial,
  {8b1f2311-e86c-44b9-9354-54ff6275e4fc}, !- Handle
  ,                                       !- Temperature Capacity Multiplier
  15,                                     !- Humidity Capacity Multiplier
  ;                                       !- Carbon Dioxide Capacity Multiplier

OS:WeatherFile,
  {3316ca4b-31cd-4ad2-8dfe-ddbe0ba86e2e}, !- Handle
  Denver Intl Ap,                         !- City
  CO,                                     !- State Province Region
  USA,                                    !- Country
  TMY3,                                   !- Data Source
  725650,                                 !- WMO Number
  39.83,                                  !- Latitude {deg}
  -104.65,                                !- Longitude {deg}
  -7,                                     !- Time Zone {hr}
  1650,                                   !- Elevation {m}
  file:../tests/USA_CO_Denver_Intl_AP_725650_TMY3.epw, !- Url
  E23378AA;                               !- Checksum

OS:AdditionalProperties,
  {258cca1a-7a72-49bd-aca7-69d8931b9c9c}, !- Handle
  {3316ca4b-31cd-4ad2-8dfe-ddbe0ba86e2e}, !- Object Name
  EPWHeaderCity,                          !- Feature Name 1
  String,                                 !- Feature Data Type 1
  Denver Intl Ap,                         !- Feature Value 1
  EPWHeaderState,                         !- Feature Name 2
  String,                                 !- Feature Data Type 2
  CO,                                     !- Feature Value 2
  EPWHeaderCountry,                       !- Feature Name 3
  String,                                 !- Feature Data Type 3
  USA,                                    !- Feature Value 3
  EPWHeaderDataSource,                    !- Feature Name 4
  String,                                 !- Feature Data Type 4
  TMY3,                                   !- Feature Value 4
  EPWHeaderStation,                       !- Feature Name 5
  String,                                 !- Feature Data Type 5
  725650,                                 !- Feature Value 5
  EPWHeaderLatitude,                      !- Feature Name 6
  Double,                                 !- Feature Data Type 6
  39.829999999999998,                     !- Feature Value 6
  EPWHeaderLongitude,                     !- Feature Name 7
  Double,                                 !- Feature Data Type 7
  -104.65000000000001,                    !- Feature Value 7
  EPWHeaderTimezone,                      !- Feature Name 8
  Double,                                 !- Feature Data Type 8
  -7,                                     !- Feature Value 8
  EPWHeaderAltitude,                      !- Feature Name 9
  Double,                                 !- Feature Data Type 9
  5413.3858267716532,                     !- Feature Value 9
  EPWHeaderLocalPressure,                 !- Feature Name 10
  Double,                                 !- Feature Data Type 10
  0.81937567683596546,                    !- Feature Value 10
  EPWHeaderRecordsPerHour,                !- Feature Name 11
  Double,                                 !- Feature Data Type 11
  1,                                      !- Feature Value 11
  EPWDataAnnualAvgDrybulb,                !- Feature Name 12
  Double,                                 !- Feature Data Type 12
  51.575616438356228,                     !- Feature Value 12
  EPWDataAnnualMinDrybulb,                !- Feature Name 13
  Double,                                 !- Feature Data Type 13
  -2.9200000000000017,                    !- Feature Value 13
  EPWDataAnnualMaxDrybulb,                !- Feature Name 14
  Double,                                 !- Feature Data Type 14
  104,                                    !- Feature Value 14
  EPWDataCDD50F,                          !- Feature Name 15
  Double,                                 !- Feature Data Type 15
  3072.2925000000005,                     !- Feature Value 15
  EPWDataCDD65F,                          !- Feature Name 16
  Double,                                 !- Feature Data Type 16
  883.62000000000035,                     !- Feature Value 16
  EPWDataHDD50F,                          !- Feature Name 17
  Double,                                 !- Feature Data Type 17
  2497.1925000000001,                     !- Feature Value 17
  EPWDataHDD65F,                          !- Feature Name 18
  Double,                                 !- Feature Data Type 18
  5783.5200000000013,                     !- Feature Value 18
  EPWDataAnnualAvgWindspeed,              !- Feature Name 19
  Double,                                 !- Feature Data Type 19
  3.9165296803649667,                     !- Feature Value 19
  EPWDataMonthlyAvgDrybulbs,              !- Feature Name 20
  String,                                 !- Feature Data Type 20
  33.4191935483871&#4431.90142857142857&#4443.02620967741937&#4442.48624999999999&#4459.877741935483854&#4473.57574999999997&#4472.07975806451608&#4472.70008064516134&#4466.49200000000006&#4450.079112903225806&#4437.218250000000005&#4434.582177419354835, !- Feature Value 20
  EPWDataGroundMonthlyTemps,              !- Feature Name 21
  String,                                 !- Feature Data Type 21
  44.08306285945173&#4440.89570904991865&#4440.64045432632048&#4442.153016571250646&#4448.225111118704206&#4454.268919273837525&#4459.508577937551024&#4462.82777283423508&#4463.10975667174995&#4460.41014950381947&#4455.304105212311526&#4449.445696474514364, !- Feature Value 21
  EPWDataWSF,                             !- Feature Name 22
  Double,                                 !- Feature Data Type 22
  0.58999999999999997,                    !- Feature Value 22
  EPWDataMonthlyAvgDailyHighDrybulbs,     !- Feature Name 23
  String,                                 !- Feature Data Type 23
  47.41032258064516&#4446.58642857142857&#4455.15032258064517&#4453.708&#4472.80193548387098&#4488.67600000000002&#4486.1858064516129&#4485.87225806451613&#4482.082&#4463.18064516129033&#4448.73400000000001&#4448.87935483870968, !- Feature Value 23
  EPWDataMonthlyAvgDailyLowDrybulbs,      !- Feature Name 24
  String,                                 !- Feature Data Type 24
  19.347741935483874&#4419.856428571428573&#4430.316129032258065&#4431.112&#4447.41612903225806&#4457.901999999999994&#4459.063870967741934&#4460.956774193548384&#4452.352000000000004&#4438.41612903225806&#4427.002000000000002&#4423.02903225806451, !- Feature Value 24
  EPWDesignHeatingDrybulb,                !- Feature Name 25
  Double,                                 !- Feature Data Type 25
  6.8000000000000007,                     !- Feature Value 25
  EPWDesignHeatingWindspeed,              !- Feature Name 26
  Double,                                 !- Feature Data Type 26
  12,                                     !- Feature Value 26
  EPWDesignCoolingDrybulb,                !- Feature Name 27
  Double,                                 !- Feature Data Type 27
  91.760000000000005,                     !- Feature Value 27
  EPWDesignCoolingWetbulb,                !- Feature Name 28
  Double,                                 !- Feature Data Type 28
  60.079999999999998,                     !- Feature Value 28
  EPWDesignCoolingHumidityRatio,          !- Feature Name 29
  Double,                                 !- Feature Data Type 29
  0.006050392196571398,                   !- Feature Value 29
  EPWDesignCoolingWindspeed,              !- Feature Name 30
  Double,                                 !- Feature Data Type 30
  4.2000000000000002,                     !- Feature Value 30
  EPWDesignDailyTemperatureRange,         !- Feature Name 31
  Double,                                 !- Feature Data Type 31
  27.359999999999999,                     !- Feature Value 31
  EPWDesignDehumidDrybulb,                !- Feature Name 32
  Double,                                 !- Feature Data Type 32
  67.280000000000001,                     !- Feature Value 32
  EPWDesignDehumidHumidityRatio,          !- Feature Name 33
  Double,                                 !- Feature Data Type 33
  0.012295426899271008,                   !- Feature Value 33
  EPWDesignCoolingDirectNormal,           !- Feature Name 34
  Double,                                 !- Feature Data Type 34
  985,                                    !- Feature Value 34
  EPWDesignCoolingDiffuseHorizontal,      !- Feature Name 35
  Double,                                 !- Feature Data Type 35
  84;                                     !- Feature Value 35

OS:YearDescription,
  {98e30852-4c30-4f54-ac3f-b4874dc80f72}, !- Handle
  ,                                       !- Calendar Year
  Monday;                                 !- Day of Week for Start Day

OS:ClimateZones,
  {237b9349-9e58-45d3-8bac-ba477564847c}, !- Handle
  ,                                       !- Active Institution
  ,                                       !- Active Year
  ,                                       !- Climate Zone Institution Name 1
  ,                                       !- Climate Zone Document Name 1
  ,                                       !- Climate Zone Document Year 1
  ,                                       !- Climate Zone Value 1
  Building America,                       !- Climate Zone Institution Name 2
  ,                                       !- Climate Zone Document Name 2
  0,                                      !- Climate Zone Document Year 2
  Cold;                                   !- Climate Zone Value 2

OS:Site:WaterMainsTemperature,
  {837a433e-3d4d-4a66-83aa-e1c5de408be9}, !- Handle
  Correlation,                            !- Calculation Method
  ,                                       !- Temperature Schedule Name
  10.8753424657535,                       !- Annual Average Outdoor Air Temperature {C}
  23.1524007936508;                       !- Maximum Difference In Monthly Average Outdoor Air Temperatures {deltaC}

OS:RunPeriodControl:DaylightSavingTime,
  {6ff6d356-260d-4fad-87b1-5fa150ca1adb}, !- Handle
  4/7,                                    !- Start Date
  10/26;                                  !- End Date

OS:Site:GroundTemperature:Deep,
  {b89206fa-60ee-4148-b4cb-5f02a73953c8}, !- Handle
  10.8753424657535,                       !- January Deep Ground Temperature {C}
  10.8753424657535,                       !- February Deep Ground Temperature {C}
  10.8753424657535,                       !- March Deep Ground Temperature {C}
  10.8753424657535,                       !- April Deep Ground Temperature {C}
  10.8753424657535,                       !- May Deep Ground Temperature {C}
  10.8753424657535,                       !- June Deep Ground Temperature {C}
  10.8753424657535,                       !- July Deep Ground Temperature {C}
  10.8753424657535,                       !- August Deep Ground Temperature {C}
  10.8753424657535,                       !- September Deep Ground Temperature {C}
  10.8753424657535,                       !- October Deep Ground Temperature {C}
  10.8753424657535,                       !- November Deep Ground Temperature {C}
  10.8753424657535;                       !- December Deep Ground Temperature {C}

OS:ThermalZone,
  {ebc75f45-d944-4cb0-b89f-3d6755373aac}, !- Handle
  living zone,                            !- Name
  ,                                       !- Multiplier
  ,                                       !- Ceiling Height {m}
  ,                                       !- Volume {m3}
  ,                                       !- Floor Area {m2}
  ,                                       !- Zone Inside Convection Algorithm
  ,                                       !- Zone Outside Convection Algorithm
  ,                                       !- Zone Conditioning Equipment List Name
  {13350c25-c767-4406-bc5e-a4f38bd40226}, !- Zone Air Inlet Port List
  {82d7941b-2b08-46f2-b7d1-fbee015fa8e5}, !- Zone Air Exhaust Port List
  {4d8e751a-44b9-49f8-a85c-c80c4faa8053}, !- Zone Air Node Name
  {c595e9df-87b6-4ada-9667-45fb2c9a7a1f}, !- Zone Return Air Node Name
  ,                                       !- Primary Daylighting Control Name
  ,                                       !- Fraction of Zone Controlled by Primary Daylighting Control
  ,                                       !- Secondary Daylighting Control Name
  ,                                       !- Fraction of Zone Controlled by Secondary Daylighting Control
  ,                                       !- Illuminance Map Name
  ,                                       !- Group Rendering Name
  {88d63bb9-9542-4b57-8bc0-c1c9b4c78e30}, !- Thermostat Name
  No;                                     !- Use Ideal Air Loads

OS:Node,
  {ed2c0e30-79f0-49f7-821d-4d55cf9727a7}, !- Handle
  Node 1,                                 !- Name
  {4d8e751a-44b9-49f8-a85c-c80c4faa8053}, !- Inlet Port
  ;                                       !- Outlet Port

OS:Connection,
  {4d8e751a-44b9-49f8-a85c-c80c4faa8053}, !- Handle
  {2ae8c2b3-2af8-4619-8143-82fc83969fc0}, !- Name
  {ebc75f45-d944-4cb0-b89f-3d6755373aac}, !- Source Object
  11,                                     !- Outlet Port
  {ed2c0e30-79f0-49f7-821d-4d55cf9727a7}, !- Target Object
  2;                                      !- Inlet Port

OS:PortList,
  {13350c25-c767-4406-bc5e-a4f38bd40226}, !- Handle
  {2074a6d2-1fec-4135-bade-975e90800c22}, !- Name
  {ebc75f45-d944-4cb0-b89f-3d6755373aac}, !- HVAC Component
  {353ee250-ed17-4b21-a2ab-5bd852c341df}; !- Port 1

OS:PortList,
  {82d7941b-2b08-46f2-b7d1-fbee015fa8e5}, !- Handle
  {982bdc89-d3c3-429c-9866-e0e253931492}, !- Name
  {ebc75f45-d944-4cb0-b89f-3d6755373aac}; !- HVAC Component

OS:Sizing:Zone,
  {6f0c419f-8c76-45df-80aa-6910a286f041}, !- Handle
  {ebc75f45-d944-4cb0-b89f-3d6755373aac}, !- Zone or ZoneList Name
  SupplyAirTemperature,                   !- Zone Cooling Design Supply Air Temperature Input Method
  14,                                     !- Zone Cooling Design Supply Air Temperature {C}
  11.11,                                  !- Zone Cooling Design Supply Air Temperature Difference {deltaC}
  SupplyAirTemperature,                   !- Zone Heating Design Supply Air Temperature Input Method
  40,                                     !- Zone Heating Design Supply Air Temperature {C}
  11.11,                                  !- Zone Heating Design Supply Air Temperature Difference {deltaC}
  0.0085,                                 !- Zone Cooling Design Supply Air Humidity Ratio {kg-H2O/kg-air}
  0.008,                                  !- Zone Heating Design Supply Air Humidity Ratio {kg-H2O/kg-air}
  ,                                       !- Zone Heating Sizing Factor
  ,                                       !- Zone Cooling Sizing Factor
  DesignDay,                              !- Cooling Design Air Flow Method
  ,                                       !- Cooling Design Air Flow Rate {m3/s}
  ,                                       !- Cooling Minimum Air Flow per Zone Floor Area {m3/s-m2}
  ,                                       !- Cooling Minimum Air Flow {m3/s}
  ,                                       !- Cooling Minimum Air Flow Fraction
  DesignDay,                              !- Heating Design Air Flow Method
  ,                                       !- Heating Design Air Flow Rate {m3/s}
  ,                                       !- Heating Maximum Air Flow per Zone Floor Area {m3/s-m2}
  ,                                       !- Heating Maximum Air Flow {m3/s}
  ,                                       !- Heating Maximum Air Flow Fraction
  ,                                       !- Design Zone Air Distribution Effectiveness in Cooling Mode
  ,                                       !- Design Zone Air Distribution Effectiveness in Heating Mode
  No,                                     !- Account for Dedicated Outdoor Air System
  NeutralSupplyAir,                       !- Dedicated Outdoor Air System Control Strategy
  autosize,                               !- Dedicated Outdoor Air Low Setpoint Temperature for Design {C}
  autosize;                               !- Dedicated Outdoor Air High Setpoint Temperature for Design {C}

OS:ZoneHVAC:EquipmentList,
  {fc97fbad-94e6-420d-8564-88c61d51a958}, !- Handle
  Zone HVAC Equipment List 1,             !- Name
  {ebc75f45-d944-4cb0-b89f-3d6755373aac}, !- Thermal Zone
  {0e8f446c-cd59-4754-93d3-76509429e5b0}, !- Zone Equipment 1
  1,                                      !- Zone Equipment Cooling Sequence 1
  1;                                      !- Zone Equipment Heating or No-Load Sequence 1

OS:Space,
  {3109d8aa-ad45-4e1a-a1a4-ef1bafc2da73}, !- Handle
  living space,                           !- Name
  {efa6bde2-eb1e-444b-9a3b-1d492aea507c}, !- Space Type Name
  ,                                       !- Default Construction Set Name
  ,                                       !- Default Schedule Set Name
  -0,                                     !- Direction of Relative North {deg}
  0,                                      !- X Origin {m}
  0,                                      !- Y Origin {m}
  0.9144,                                 !- Z Origin {m}
  ,                                       !- Building Story Name
  {ebc75f45-d944-4cb0-b89f-3d6755373aac}, !- Thermal Zone Name
  ,                                       !- Part of Total Floor Area
  ,                                       !- Design Specification Outdoor Air Object Name
  {54f789fe-4cfb-4bc9-87fe-0877e4758b6f}; !- Building Unit Name

OS:Surface,
  {b02902c7-1c47-454e-b2c1-1f8d2b683680}, !- Handle
  Surface 1,                              !- Name
  Floor,                                  !- Surface Type
  {5091d55d-fb60-4e7f-a4eb-da0f171ff3f2}, !- Construction Name
  {3109d8aa-ad45-4e1a-a1a4-ef1bafc2da73}, !- Space Name
  Surface,                                !- Outside Boundary Condition
  {119580b4-ecca-49d3-a93b-184d1dbed839}, !- Outside Boundary Condition Object
  NoSun,                                  !- Sun Exposure
  NoWind,                                 !- Wind Exposure
  ,                                       !- View Factor to Ground
  ,                                       !- Number of Vertices
  0, 0, -1.11022302462516e-016,           !- X,Y,Z Vertex 1 {m}
  0, 7.01040000037894, -1.11022302462516e-016, !- X,Y,Z Vertex 2 {m}
  11.2775999993904, 7.01040000037894, -1.11022302462516e-016, !- X,Y,Z Vertex 3 {m}
  11.2775999993904, 0, -1.11022302462516e-016; !- X,Y,Z Vertex 4 {m}

OS:Surface,
  {c778bf6f-27c5-4bf6-a445-c9e947479964}, !- Handle
  Surface 2,                              !- Name
  Wall,                                   !- Surface Type
  {66175b26-861e-4930-9e99-ad02c13165e1}, !- Construction Name
  {3109d8aa-ad45-4e1a-a1a4-ef1bafc2da73}, !- Space Name
  Outdoors,                               !- Outside Boundary Condition
  ,                                       !- Outside Boundary Condition Object
  SunExposed,                             !- Sun Exposure
  WindExposed,                            !- Wind Exposure
  ,                                       !- View Factor to Ground
  ,                                       !- Number of Vertices
  0, 7.01040000037894, 2.4384,            !- X,Y,Z Vertex 1 {m}
  0, 7.01040000037894, -1.11022302462516e-016, !- X,Y,Z Vertex 2 {m}
  0, 0, -1.11022302462516e-016,           !- X,Y,Z Vertex 3 {m}
  0, 0, 2.4384;                           !- X,Y,Z Vertex 4 {m}

OS:Surface,
  {bb1d43e9-3622-4fe4-ac0a-343002373fcd}, !- Handle
  Surface 3,                              !- Name
  Wall,                                   !- Surface Type
  {66175b26-861e-4930-9e99-ad02c13165e1}, !- Construction Name
  {3109d8aa-ad45-4e1a-a1a4-ef1bafc2da73}, !- Space Name
  Outdoors,                               !- Outside Boundary Condition
  ,                                       !- Outside Boundary Condition Object
  SunExposed,                             !- Sun Exposure
  WindExposed,                            !- Wind Exposure
  ,                                       !- View Factor to Ground
  ,                                       !- Number of Vertices
  11.2775999993904, 7.01040000037894, 2.4384, !- X,Y,Z Vertex 1 {m}
  11.2775999993904, 7.01040000037894, -1.11022302462516e-016, !- X,Y,Z Vertex 2 {m}
  0, 7.01040000037894, -1.11022302462516e-016, !- X,Y,Z Vertex 3 {m}
  0, 7.01040000037894, 2.4384;            !- X,Y,Z Vertex 4 {m}

OS:Surface,
  {ee329842-0a7a-4bc8-b4ee-4409f3553589}, !- Handle
  Surface 4,                              !- Name
  Wall,                                   !- Surface Type
  {66175b26-861e-4930-9e99-ad02c13165e1}, !- Construction Name
  {3109d8aa-ad45-4e1a-a1a4-ef1bafc2da73}, !- Space Name
  Outdoors,                               !- Outside Boundary Condition
  ,                                       !- Outside Boundary Condition Object
  SunExposed,                             !- Sun Exposure
  WindExposed,                            !- Wind Exposure
  ,                                       !- View Factor to Ground
  ,                                       !- Number of Vertices
  11.2775999993904, 0, 2.4384,            !- X,Y,Z Vertex 1 {m}
  11.2775999993904, 0, -1.11022302462516e-016, !- X,Y,Z Vertex 2 {m}
  11.2775999993904, 7.01040000037894, -1.11022302462516e-016, !- X,Y,Z Vertex 3 {m}
  11.2775999993904, 7.01040000037894, 2.4384; !- X,Y,Z Vertex 4 {m}

OS:Surface,
  {e8dfec64-93b9-4161-af68-fd92b4bcc5d5}, !- Handle
  Surface 5,                              !- Name
  Wall,                                   !- Surface Type
  {66175b26-861e-4930-9e99-ad02c13165e1}, !- Construction Name
  {3109d8aa-ad45-4e1a-a1a4-ef1bafc2da73}, !- Space Name
  Outdoors,                               !- Outside Boundary Condition
  ,                                       !- Outside Boundary Condition Object
  SunExposed,                             !- Sun Exposure
  WindExposed,                            !- Wind Exposure
  ,                                       !- View Factor to Ground
  ,                                       !- Number of Vertices
  11.2775999993904, 0, -1.11022302462516e-016, !- X,Y,Z Vertex 1 {m}
  11.2775999993904, 0, 2.4384,            !- X,Y,Z Vertex 2 {m}
  1.04865714285714, 0, 2.4384,            !- X,Y,Z Vertex 3 {m}
  1.04865714285714, 0, -1.11022302462516e-016; !- X,Y,Z Vertex 4 {m}

OS:Surface,
  {1c8ba2b8-96c2-471f-8e48-831cf2ccfc20}, !- Handle
  Surface 6,                              !- Name
  RoofCeiling,                            !- Surface Type
  {6d1ad4e1-797b-49a8-9ae3-a054287f7973}, !- Construction Name
  {3109d8aa-ad45-4e1a-a1a4-ef1bafc2da73}, !- Space Name
  Surface,                                !- Outside Boundary Condition
  {851689fa-988b-42c4-9240-d8213f9871d6}, !- Outside Boundary Condition Object
  NoSun,                                  !- Sun Exposure
  NoWind,                                 !- Wind Exposure
  ,                                       !- View Factor to Ground
  ,                                       !- Number of Vertices
  11.2775999993904, 0, 2.4384,            !- X,Y,Z Vertex 1 {m}
  11.2775999993904, 7.01040000037894, 2.4384, !- X,Y,Z Vertex 2 {m}
  0, 7.01040000037894, 2.4384,            !- X,Y,Z Vertex 3 {m}
  0, 0, 2.4384;                           !- X,Y,Z Vertex 4 {m}

OS:SpaceType,
  {efa6bde2-eb1e-444b-9a3b-1d492aea507c}, !- Handle
  Space Type 1,                           !- Name
  ,                                       !- Default Construction Set Name
  ,                                       !- Default Schedule Set Name
  ,                                       !- Group Rendering Name
  ,                                       !- Design Specification Outdoor Air Object Name
  ,                                       !- Standards Building Type
  living;                                 !- Standards Space Type

OS:Surface,
  {851689fa-988b-42c4-9240-d8213f9871d6}, !- Handle
  Surface 7,                              !- Name
  Floor,                                  !- Surface Type
  {4b844f55-b68f-40ac-b3dd-17fda0ba9158}, !- Construction Name
  {136bdad0-b277-415b-9a75-af39fb1b0bae}, !- Space Name
  Surface,                                !- Outside Boundary Condition
  {1c8ba2b8-96c2-471f-8e48-831cf2ccfc20}, !- Outside Boundary Condition Object
  NoSun,                                  !- Sun Exposure
  NoWind,                                 !- Wind Exposure
  ,                                       !- View Factor to Ground
  ,                                       !- Number of Vertices
  0, 7.01040000037894, -4.44089209850063e-016, !- X,Y,Z Vertex 1 {m}
  11.2775999993904, 7.01040000037894, -4.44089209850063e-016, !- X,Y,Z Vertex 2 {m}
  11.2775999993904, 0, -4.44089209850063e-016, !- X,Y,Z Vertex 3 {m}
  0, 0, -4.44089209850063e-016;           !- X,Y,Z Vertex 4 {m}

OS:Surface,
  {924d3c8e-f536-4da5-9cd6-d7f96bee31bc}, !- Handle
  Surface 8,                              !- Name
  RoofCeiling,                            !- Surface Type
  {9a916893-7f68-4efe-b118-5544851f1516}, !- Construction Name
  {136bdad0-b277-415b-9a75-af39fb1b0bae}, !- Space Name
  Outdoors,                               !- Outside Boundary Condition
  ,                                       !- Outside Boundary Condition Object