!- NOTE: Auto-generated from /test/osw_files/SFD_HVACSizing_Equip_MSHP_AutosizeForMaxLoad.osw

OS:Version,
  {a3f1d76d-1d27-4e3a-8cae-01460de57ad5}, !- Handle
  2.6.2;                                  !- Version Identifier

OS:Building,
  {f2b60afd-72dc-4a86-8fd1-4e4894cec3cc}, !- Handle
  Building 1,                             !- Name
  ,                                       !- Building Sector Type
  22.5,                                   !- North Axis {deg}
  ,                                       !- Nominal Floor to Floor Height {m}
  ,                                       !- Space Type Name
  ,                                       !- Default Construction Set Name
  ,                                       !- Default Schedule Set Name
  4,                                      !- Standards Number of Stories
  3,                                      !- Standards Number of Above Ground Stories
  singlefamilydetached,                   !- Standards Building Type
  1;                                      !- Standards Number of Living Units

OS:Facility,
  {afb250eb-ba11-4e34-a743-9c9c7e5f302b}; !- Handle

OS:Site,
  {a1dc031d-f5a2-4103-9a80-ea78645ccdf2}, !- Handle
  Denver Intl Ap_CO_USA,                  !- Name
  39.83,                                  !- Latitude {deg}
  -104.65,                                !- Longitude {deg}
  -7,                                     !- Time Zone {hr}
  1650,                                   !- Elevation {m}
  Suburbs;                                !- Terrain

OS:SimulationControl,
  {40ee6bf1-07e7-40ad-b714-5aee40553778}, !- Handle
  ,                                       !- Do Zone Sizing Calculation
  ,                                       !- Do System Sizing Calculation
  ,                                       !- Do Plant Sizing Calculation
  No;                                     !- Run Simulation for Sizing Periods

OS:Sizing:Parameters,
  {f756c2c6-07f4-4975-b703-c87f3f6334a6}, !- Handle
  1.25,                                   !- Heating Sizing Factor
  1.15;                                   !- Cooling Sizing Factor

OS:Timestep,
  {7170a6ca-fabb-4506-87f7-699112ab9a2b}, !- Handle
  6;                                      !- Number of Timesteps per Hour

OS:ShadowCalculation,
  {58faaa05-6c19-419c-924e-b018ee841068}, !- Handle
  20,                                     !- Calculation Frequency
  200;                                    !- Maximum Figures in Shadow Overlap Calculations

OS:HeatBalanceAlgorithm,
  {f7713562-f1a0-4514-b15b-b496ee4057de}, !- Handle
  ConductionTransferFunction,             !- Algorithm
  200;                                    !- Surface Temperature Upper Limit {C}

OS:RunPeriod,
  {089ff048-9d16-441a-a3a1-76b6aaa3a7d9}, !- Handle
  Run Period 1,                           !- Name
  1,                                      !- Begin Month
  1,                                      !- Begin Day of Month
  12,                                     !- End Month
  31,                                     !- End Day of Month
  ,                                       !- Use Weather File Holidays and Special Days
  ,                                       !- Use Weather File Daylight Saving Period
  ,                                       !- Apply Weekend Holiday Rule
  ,                                       !- Use Weather File Rain Indicators
  ,                                       !- Use Weather File Snow Indicators
  ;                                       !- Number of Times Runperiod to be Repeated

OS:LifeCycleCost:Parameters,
  {d491289b-8303-4cae-9805-9f74d57d47a2}, !- Handle
  ,                                       !- Analysis Type
  ,                                       !- Discounting Convention
  ,                                       !- Inflation Approach
  ,                                       !- Real Discount Rate
  ,                                       !- Nominal Discount Rate
  ,                                       !- Inflation
  ,                                       !- Base Date Month
  ,                                       !- Base Date Year
  ,                                       !- Service Date Month
  ,                                       !- Service Date Year
  ;                                       !- Length of Study Period in Years

OS:SurfaceConvectionAlgorithm:Outside,
  {eff4f523-747c-4ad8-8616-72430f86ccbf}, !- Handle
  DOE-2;                                  !- Algorithm

OS:SurfaceConvectionAlgorithm:Inside,
  {089aed54-0031-4c95-9694-a0f8db1ddf28}, !- Handle
  TARP;                                   !- Algorithm

OS:ZoneCapacitanceMultiplier:ResearchSpecial,
  {2cb3f613-aab6-415a-aac1-7e992653656a}, !- Handle
  ,                                       !- Temperature Capacity Multiplier
  15,                                     !- Humidity Capacity Multiplier
  ;                                       !- Carbon Dioxide Capacity Multiplier

OS:WeatherFile,
  {a54cc63d-3877-46bc-9b37-bb15ac5cbb41}, !- Handle
  Denver Intl Ap,                         !- City
  CO,                                     !- State Province Region
  USA,                                    !- Country
  TMY3,                                   !- Data Source
  725650,                                 !- WMO Number
  39.83,                                  !- Latitude {deg}
  -104.65,                                !- Longitude {deg}
  -7,                                     !- Time Zone {hr}
  1650,                                   !- Elevation {m}
  file:../tests/USA_CO_Denver_Intl_AP_725650_TMY3.epw, !- Url
  E23378AA;                               !- Checksum

OS:BuildingUnit,
  {a17f2cc8-f82f-446e-a14c-563e0f94e472}, !- Handle
  EPWWeatherInfo,                         !- Name
  ,                                       !- Rendering Color
  Residential;                            !- Building Unit Type

OS:AdditionalProperties,
  {01f7aba3-1f2f-4cf3-9e9a-b85508b01fa9}, !- Handle
  {a17f2cc8-f82f-446e-a14c-563e0f94e472}, !- Object Name
  EPWHeaderCity,                          !- Feature Name 1
  String,                                 !- Feature Data Type 1
  Denver Intl Ap,                         !- Feature Value 1
  EPWHeaderState,                         !- Feature Name 2
  String,                                 !- Feature Data Type 2
  CO,                                     !- Feature Value 2
  EPWHeaderCountry,                       !- Feature Name 3
  String,                                 !- Feature Data Type 3
  USA,                                    !- Feature Value 3
  EPWHeaderDataSource,                    !- Feature Name 4
  String,                                 !- Feature Data Type 4
  TMY3,                                   !- Feature Value 4
  EPWHeaderStation,                       !- Feature Name 5
  String,                                 !- Feature Data Type 5
  725650,                                 !- Feature Value 5
  EPWHeaderLatitude,                      !- Feature Name 6
  Double,                                 !- Feature Data Type 6
  39.829999999999998,                     !- Feature Value 6
  EPWHeaderLongitude,                     !- Feature Name 7
  Double,                                 !- Feature Data Type 7
  -104.65000000000001,                    !- Feature Value 7
  EPWHeaderTimezone,                      !- Feature Name 8
  Double,                                 !- Feature Data Type 8
  -7,                                     !- Feature Value 8
  EPWHeaderAltitude,                      !- Feature Name 9
  Double,                                 !- Feature Data Type 9
  5413.3858267716532,                     !- Feature Value 9
  EPWHeaderLocalPressure,                 !- Feature Name 10
  Double,                                 !- Feature Data Type 10
  0.81937567683596546,                    !- Feature Value 10
  EPWDataAnnualAvgDrybulb,                !- Feature Name 11
  Double,                                 !- Feature Data Type 11
  51.575616438356228,                     !- Feature Value 11
  EPWDataAnnualMinDrybulb,                !- Feature Name 12
  Double,                                 !- Feature Data Type 12
  -2.9200000000000017,                    !- Feature Value 12
  EPWDataAnnualMaxDrybulb,                !- Feature Name 13
  Double,                                 !- Feature Data Type 13
  104,                                    !- Feature Value 13
  EPWDataCDD50F,                          !- Feature Name 14
  Double,                                 !- Feature Data Type 14
  3072.2925000000005,                     !- Feature Value 14
  EPWDataCDD65F,                          !- Feature Name 15
  Double,                                 !- Feature Data Type 15
  883.62000000000035,                     !- Feature Value 15
  EPWDataHDD50F,                          !- Feature Name 16
  Double,                                 !- Feature Data Type 16
  2497.1925000000001,                     !- Feature Value 16
  EPWDataHDD65F,                          !- Feature Name 17
  Double,                                 !- Feature Data Type 17
  5783.5200000000013,                     !- Feature Value 17
  EPWDataAnnualAvgWindspeed,              !- Feature Name 18
  Double,                                 !- Feature Data Type 18
  3.9165296803649667,                     !- Feature Value 18
  EPWDataMonthlyAvgDrybulbs,              !- Feature Name 19
  String,                                 !- Feature Data Type 19
  33.4191935483871&#4431.90142857142857&#4443.02620967741937&#4442.48624999999999&#4459.877741935483854&#4473.57574999999997&#4472.07975806451608&#4472.70008064516134&#4466.49200000000006&#4450.079112903225806&#4437.218250000000005&#4434.582177419354835, !- Feature Value 19
  EPWDataGroundMonthlyTemps,              !- Feature Name 20
  String,                                 !- Feature Data Type 20
  44.08306285945173&#4440.89570904991865&#4440.64045432632048&#4442.153016571250646&#4448.225111118704206&#4454.268919273837525&#4459.508577937551024&#4462.82777283423508&#4463.10975667174995&#4460.41014950381947&#4455.304105212311526&#4449.445696474514364, !- Feature Value 20
  EPWDataWSF,                             !- Feature Name 21
  Double,                                 !- Feature Data Type 21
  0.58999999999999997,                    !- Feature Value 21
  EPWDataMonthlyAvgDailyHighDrybulbs,     !- Feature Name 22
  String,                                 !- Feature Data Type 22
  47.41032258064516&#4446.58642857142857&#4455.15032258064517&#4453.708&#4472.80193548387098&#4488.67600000000002&#4486.1858064516129&#4485.87225806451613&#4482.082&#4463.18064516129033&#4448.73400000000001&#4448.87935483870968, !- Feature Value 22
  EPWDataMonthlyAvgDailyLowDrybulbs,      !- Feature Name 23
  String,                                 !- Feature Data Type 23
  19.347741935483874&#4419.856428571428573&#4430.316129032258065&#4431.112&#4447.41612903225806&#4457.901999999999994&#4459.063870967741934&#4460.956774193548384&#4452.352000000000004&#4438.41612903225806&#4427.002000000000002&#4423.02903225806451, !- Feature Value 23
  EPWDesignHeatingDrybulb,                !- Feature Name 24
  Double,                                 !- Feature Data Type 24
  6.8000000000000007,                     !- Feature Value 24
  EPWDesignHeatingWindspeed,              !- Feature Name 25
  Double,                                 !- Feature Data Type 25
  12,                                     !- Feature Value 25
  EPWDesignCoolingDrybulb,                !- Feature Name 26
  Double,                                 !- Feature Data Type 26
  91.760000000000005,                     !- Feature Value 26
  EPWDesignCoolingWetbulb,                !- Feature Name 27
  Double,                                 !- Feature Data Type 27
  60.079999999999998,                     !- Feature Value 27
  EPWDesignCoolingHumidityRatio,          !- Feature Name 28
  Double,                                 !- Feature Data Type 28
  0.006050392196571398,                   !- Feature Value 28
  EPWDesignCoolingWindspeed,              !- Feature Name 29
  Double,                                 !- Feature Data Type 29
  4.2000000000000002,                     !- Feature Value 29
  EPWDesignDailyTemperatureRange,         !- Feature Name 30
  Double,                                 !- Feature Data Type 30
  27.359999999999999,                     !- Feature Value 30
  EPWDesignDehumidDrybulb,                !- Feature Name 31
  Double,                                 !- Feature Data Type 31
  67.280000000000001,                     !- Feature Value 31
  EPWDesignDehumidHumidityRatio,          !- Feature Name 32
  Double,                                 !- Feature Data Type 32
  0.012295426899271008,                   !- Feature Value 32
  EPWDesignCoolingDirectNormal,           !- Feature Name 33
  Double,                                 !- Feature Data Type 33
  985,                                    !- Feature Value 33
  EPWDesignCoolingDiffuseHorizontal,      !- Feature Name 34
  Double,                                 !- Feature Data Type 34
  84;                                     !- Feature Value 34

OS:YearDescription,
  {0c7a358f-8f16-484d-a5e8-98801a2e2413}, !- Handle
  ,                                       !- Calendar Year
  Monday;                                 !- Day of Week for Start Day

OS:ClimateZones,
  {7d555368-0405-493d-92d5-5f14e591594c}, !- Handle
  ,                                       !- Active Institution
  ,                                       !- Active Year
  ,                                       !- Climate Zone Institution Name 1
  ,                                       !- Climate Zone Document Name 1
  ,                                       !- Climate Zone Document Year 1
  ,                                       !- Climate Zone Value 1
  Building America,                       !- Climate Zone Institution Name 2
  ,                                       !- Climate Zone Document Name 2
  0,                                      !- Climate Zone Document Year 2
  Cold;                                   !- Climate Zone Value 2

OS:Site:WaterMainsTemperature,
  {57b3a244-bd00-49b1-b510-2635a12e27ad}, !- Handle
  Correlation,                            !- Calculation Method
  ,                                       !- Temperature Schedule Name
  10.8753424657535,                       !- Annual Average Outdoor Air Temperature {C}
  23.1524007936508;                       !- Maximum Difference In Monthly Average Outdoor Air Temperatures {deltaC}

OS:RunPeriodControl:DaylightSavingTime,
  {76164c6d-f200-4d97-b449-762c9dfcba22}, !- Handle
  4/7,                                    !- Start Date
  10/26;                                  !- End Date

OS:Site:GroundTemperature:Deep,
  {4c54e3af-905e-4880-8c70-138ca49e103c}, !- Handle
  10.8753424657535,                       !- January Deep Ground Temperature {C}
  10.8753424657535,                       !- February Deep Ground Temperature {C}
  10.8753424657535,                       !- March Deep Ground Temperature {C}
  10.8753424657535,                       !- April Deep Ground Temperature {C}
  10.8753424657535,                       !- May Deep Ground Temperature {C}
  10.8753424657535,                       !- June Deep Ground Temperature {C}
  10.8753424657535,                       !- July Deep Ground Temperature {C}
  10.8753424657535,                       !- August Deep Ground Temperature {C}
  10.8753424657535,                       !- September Deep Ground Temperature {C}
  10.8753424657535,                       !- October Deep Ground Temperature {C}
  10.8753424657535,                       !- November Deep Ground Temperature {C}
  10.8753424657535;                       !- December Deep Ground Temperature {C}

OS:ThermalZone,
  {7916858c-6787-499f-b056-e62821561699}, !- Handle
  living zone,                            !- Name
  ,                                       !- Multiplier
  ,                                       !- Ceiling Height {m}
  ,                                       !- Volume {m3}
  ,                                       !- Floor Area {m2}
  ,                                       !- Zone Inside Convection Algorithm
  ,                                       !- Zone Outside Convection Algorithm
  ,                                       !- Zone Conditioning Equipment List Name
  {22572d55-2b48-40c7-a9d9-1939467e285a}, !- Zone Air Inlet Port List
  {da7ec579-148f-43c8-9a76-65b262872178}, !- Zone Air Exhaust Port List
  {133597db-7081-470c-9be9-964dbce29813}, !- Zone Air Node Name
  {dd6f40df-1547-4d3b-90d0-d99e58986ada}, !- Zone Return Air Port List
  ,                                       !- Primary Daylighting Control Name
  ,                                       !- Fraction of Zone Controlled by Primary Daylighting Control
  ,                                       !- Secondary Daylighting Control Name
  ,                                       !- Fraction of Zone Controlled by Secondary Daylighting Control
  ,                                       !- Illuminance Map Name
  ,                                       !- Group Rendering Name
  {76628f7b-d657-464e-bde6-866cbb519700}, !- Thermostat Name
  No;                                     !- Use Ideal Air Loads

OS:Node,
  {e8ffd501-22db-4765-9b5f-7c091985dd6e}, !- Handle
  Node 1,                                 !- Name
  {133597db-7081-470c-9be9-964dbce29813}, !- Inlet Port
  ;                                       !- Outlet Port

OS:Connection,
  {133597db-7081-470c-9be9-964dbce29813}, !- Handle
  {4e8e3eb8-9641-40a0-8242-c09f7221da30}, !- Name
  {7916858c-6787-499f-b056-e62821561699}, !- Source Object
  11,                                     !- Outlet Port
  {e8ffd501-22db-4765-9b5f-7c091985dd6e}, !- Target Object
  2;                                      !- Inlet Port

OS:PortList,
  {22572d55-2b48-40c7-a9d9-1939467e285a}, !- Handle
  {c6ac2050-a6cd-4d55-aa81-7c0a183933a4}, !- Name
  {7916858c-6787-499f-b056-e62821561699}, !- HVAC Component
  {7fb34e3b-7dcf-4bba-b695-4802889908ee}, !- Port 1
  {bd6b4f09-d3b6-4581-b21a-ddd3f84ca025}; !- Port 2

OS:PortList,
  {da7ec579-148f-43c8-9a76-65b262872178}, !- Handle
  {d21a216a-d14a-4276-bf74-f0c913ebae8a}, !- Name
  {7916858c-6787-499f-b056-e62821561699}, !- HVAC Component
  {7f26839f-4529-4d25-b99a-7049d92a39e6}, !- Port 1
  {71d52577-c6a5-4686-bab7-7b197435fc2b}; !- Port 2

OS:PortList,
  {dd6f40df-1547-4d3b-90d0-d99e58986ada}, !- Handle
  {af0ec951-398b-4345-99b6-63c162574f12}, !- Name
  {7916858c-6787-499f-b056-e62821561699}; !- HVAC Component

OS:Sizing:Zone,
  {822c26ef-ee90-4b9b-bc0f-faff90de80e8}, !- Handle
  {7916858c-6787-499f-b056-e62821561699}, !- Zone or ZoneList Name
  SupplyAirTemperature,                   !- Zone Cooling Design Supply Air Temperature Input Method
  14,                                     !- Zone Cooling Design Supply Air Temperature {C}
  11.11,                                  !- Zone Cooling Design Supply Air Temperature Difference {deltaC}
  SupplyAirTemperature,                   !- Zone Heating Design Supply Air Temperature Input Method
  40,                                     !- Zone Heating Design Supply Air Temperature {C}
  11.11,                                  !- Zone Heating Design Supply Air Temperature Difference {deltaC}
  0.0085,                                 !- Zone Cooling Design Supply Air Humidity Ratio {kg-H2O/kg-air}
  0.008,                                  !- Zone Heating Design Supply Air Humidity Ratio {kg-H2O/kg-air}
  ,                                       !- Zone Heating Sizing Factor
  ,                                       !- Zone Cooling Sizing Factor
  DesignDay,                              !- Cooling Design Air Flow Method
  ,                                       !- Cooling Design Air Flow Rate {m3/s}
  ,                                       !- Cooling Minimum Air Flow per Zone Floor Area {m3/s-m2}
  ,                                       !- Cooling Minimum Air Flow {m3/s}
  ,                                       !- Cooling Minimum Air Flow Fraction
  DesignDay,                              !- Heating Design Air Flow Method
  ,                                       !- Heating Design Air Flow Rate {m3/s}
  ,                                       !- Heating Maximum Air Flow per Zone Floor Area {m3/s-m2}
  ,                                       !- Heating Maximum Air Flow {m3/s}
  ,                                       !- Heating Maximum Air Flow Fraction
  ,                                       !- Design Zone Air Distribution Effectiveness in Cooling Mode
  ,                                       !- Design Zone Air Distribution Effectiveness in Heating Mode
  No,                                     !- Account for Dedicated Outdoor Air System
  NeutralSupplyAir,                       !- Dedicated Outdoor Air System Control Strategy
  autosize,                               !- Dedicated Outdoor Air Low Setpoint Temperature for Design {C}
  autosize;                               !- Dedicated Outdoor Air High Setpoint Temperature for Design {C}

OS:ZoneHVAC:EquipmentList,
  {1e3666d4-887d-45c8-8e8d-105f3786c631}, !- Handle
  Zone HVAC Equipment List 1,             !- Name
  {7916858c-6787-499f-b056-e62821561699}, !- Thermal Zone
  SequentialLoad,                         !- Load Distribution Scheme
  {b006c818-7d97-4a16-af4d-2af905c018ab}, !- Zone Equipment 1
  1,                                      !- Zone Equipment Cooling Sequence 1
  1,                                      !- Zone Equipment Heating or No-Load Sequence 1
  {a599acda-8c3e-4b37-be4b-5fc5aab23e27}, !- Zone Equipment 2
  2,                                      !- Zone Equipment Cooling Sequence 2
  2;                                      !- Zone Equipment Heating or No-Load Sequence 2

OS:ThermalZone,
  {22cc653b-adc6-4e20-9aeb-41e0c298029e}, !- Handle
  garage zone,                            !- Name
  ,                                       !- Multiplier
  ,                                       !- Ceiling Height {m}
  ,                                       !- Volume {m3}
  ,                                       !- Floor Area {m2}
  ,                                       !- Zone Inside Convection Algorithm
  ,                                       !- Zone Outside Convection Algorithm
  ,                                       !- Zone Conditioning Equipment List Name
  {05651af2-f8d7-4243-887a-5a79b3789bb8}, !- Zone Air Inlet Port List
  {e37a05b3-4fa1-457e-bd23-d660813cb67c}, !- Zone Air Exhaust Port List
  {350601e3-3c7d-43ce-85da-3ee65e1478e6}, !- Zone Air Node Name
  {3f24046b-3ce4-41e6-a5d2-0c60e68dc601}, !- Zone Return Air Port List
  ,                                       !- Primary Daylighting Control Name
  ,                                       !- Fraction of Zone Controlled by Primary Daylighting Control
  ,                                       !- Secondary Daylighting Control Name
  ,                                       !- Fraction of Zone Controlled by Secondary Daylighting Control
  ,                                       !- Illuminance Map Name
  ,                                       !- Group Rendering Name
  ,                                       !- Thermostat Name
  No;                                     !- Use Ideal Air Loads

OS:Node,
  {a4f969ef-b404-4f7a-8c41-a5a46a7ecdc8}, !- Handle
  Node 2,                                 !- Name
  {350601e3-3c7d-43ce-85da-3ee65e1478e6}, !- Inlet Port
  ;                                       !- Outlet Port

OS:Connection,
  {350601e3-3c7d-43ce-85da-3ee65e1478e6}, !- Handle
  {6e6f03f5-8ddd-4551-9bf6-269f61712d27}, !- Name
  {22cc653b-adc6-4e20-9aeb-41e0c298029e}, !- Source Object
  11,                                     !- Outlet Port
  {a4f969ef-b404-4f7a-8c41-a5a46a7ecdc8}, !- Target Object
  2;                                      !- Inlet Port

OS:PortList,
  {05651af2-f8d7-4243-887a-5a79b3789bb8}, !- Handle
  {ba79750f-7e3a-444e-b133-7985026a33fc}, !- Name
  {22cc653b-adc6-4e20-9aeb-41e0c298029e}; !- HVAC Component

OS:PortList,
  {e37a05b3-4fa1-457e-bd23-d660813cb67c}, !- Handle
  {bcfada87-b015-4f49-a406-7ac2039aa8bc}, !- Name
  {22cc653b-adc6-4e20-9aeb-41e0c298029e}; !- HVAC Component

OS:PortList,
  {3f24046b-3ce4-41e6-a5d2-0c60e68dc601}, !- Handle
  {bb4a4fe0-9556-482f-9141-7260112fe7de}, !- Name
  {22cc653b-adc6-4e20-9aeb-41e0c298029e}; !- HVAC Component

OS:Sizing:Zone,
  {a221fadf-4ebc-4500-bdb3-68c41220cd77}, !- Handle
  {22cc653b-adc6-4e20-9aeb-41e0c298029e}, !- Zone or ZoneList Name
  SupplyAirTemperature,                   !- Zone Cooling Design Supply Air Temperature Input Method
  14,                                     !- Zone Cooling Design Supply Air Temperature {C}
  11.11,                                  !- Zone Cooling Design Supply Air Temperature Difference {deltaC}
  SupplyAirTemperature,                   !- Zone Heating Design Supply Air Temperature Input Method
  40,                                     !- Zone Heating Design Supply Air Temperature {C}
  11.11,                                  !- Zone Heating Design Supply Air Temperature Difference {deltaC}
  0.0085,                                 !- Zone Cooling Design Supply Air Humidity Ratio {kg-H2O/kg-air}
  0.008,                                  !- Zone Heating Design Supply Air Humidity Ratio {kg-H2O/kg-air}
  ,                                       !- Zone Heating Sizing Factor
  ,                                       !- Zone Cooling Sizing Factor
  DesignDay,                              !- Cooling Design Air Flow Method
  ,                                       !- Cooling Design Air Flow Rate {m3/s}
  ,                                       !- Cooling Minimum Air Flow per Zone Floor Area {m3/s-m2}
  ,                                       !- Cooling Minimum Air Flow {m3/s}
  ,                                       !- Cooling Minimum Air Flow Fraction
  DesignDay,                              !- Heating Design Air Flow Method
  ,                                       !- Heating Design Air Flow Rate {m3/s}
  ,                                       !- Heating Maximum Air Flow per Zone Floor Area {m3/s-m2}
  ,                                       !- Heating Maximum Air Flow {m3/s}
  ,                                       !- Heating Maximum Air Flow Fraction
  ,                                       !- Design Zone Air Distribution Effectiveness in Cooling Mode
  ,                                       !- Design Zone Air Distribution Effectiveness in Heating Mode
  No,                                     !- Account for Dedicated Outdoor Air System
  NeutralSupplyAir,                       !- Dedicated Outdoor Air System Control Strategy
  autosize,                               !- Dedicated Outdoor Air Low Setpoint Temperature for Design {C}
  autosize;                               !- Dedicated Outdoor Air High Setpoint Temperature for Design {C}

OS:ZoneHVAC:EquipmentList,
  {7afa41c0-6841-44f1-b814-4bcd5f908db9}, !- Handle
  Zone HVAC Equipment List 2,             !- Name
  {22cc653b-adc6-4e20-9aeb-41e0c298029e}; !- Thermal Zone

OS:Space,
  {4f6f0293-7c60-44d4-a906-de9611e56628}, !- Handle
  garage space,                           !- Name
  {0700b48f-80d6-4352-8e97-5b52738b6578}, !- Space Type Name
  ,                                       !- Default Construction Set Name
  ,                                       !- Default Schedule Set Name
  -0,                                     !- Direction of Relative North {deg}
  0,                                      !- X Origin {m}
  0,                                      !- Y Origin {m}
  0,                                      !- Z Origin {m}
  ,                                       !- Building Story Name
  {22cc653b-adc6-4e20-9aeb-41e0c298029e}; !- Thermal Zone Name

OS:Surface,
  {a280adf1-793f-4b72-9f80-797ce907f1be}, !- Handle
  Surface 1,                              !- Name
  Floor,                                  !- Surface Type
  {74b7bd19-6e35-4495-8059-332f135bc1c8}, !- Construction Name
  {4f6f0293-7c60-44d4-a906-de9611e56628}, !- Space Name
  Foundation,                             !- Outside Boundary Condition
  {f405096a-9ca1-4f91-8089-7c78c964a234}, !- Outside Boundary Condition Object
  NoSun,                                  !- Sun Exposure
  NoWind,                                 !- Wind Exposure
  ,                                       !- View Factor to Ground
  ,                                       !- Number of Vertices
  7.6199999993904, -3.048, 0,             !- X,Y,Z Vertex 1 {m}
  7.6199999993904, 3.048, 0,              !- X,Y,Z Vertex 2 {m}
  11.2775999993904, 3.048, 0,             !- X,Y,Z Vertex 3 {m}
  11.2775999993904, -3.048, 0;            !- X,Y,Z Vertex 4 {m}

OS:Surface,
  {a3124746-97db-45f6-b4ec-301fa1155cb3}, !- Handle
  Surface 2,                              !- Name
  Wall,                                   !- Surface Type
  {d7710d6b-9e8b-4e61-959a-b6d76524a4cd}, !- Construction Name
  {4f6f0293-7c60-44d4-a906-de9611e56628}, !- Space Name
  Surface,                                !- Outside Boundary Condition
  {0ac1f597-b501-401c-bb5e-849f8c32942b}, !- Outside Boundary Condition Object
  NoSun,                                  !- Sun Exposure
  NoWind,                                 !- Wind Exposure
  ,                                       !- View Factor to Ground
  ,                                       !- Number of Vertices
  7.6199999993904, 3.048, 2.4384,         !- X,Y,Z Vertex 1 {m}
  7.6199999993904, 3.048, 0,              !- X,Y,Z Vertex 2 {m}
  7.6199999993904, 0, 0,                  !- X,Y,Z Vertex 3 {m}
  7.6199999993904, 0, 2.4384;             !- X,Y,Z Vertex 4 {m}

OS:Surface,
  {a0186a98-ea7f-43a1-8906-ad7eac0139e1}, !- Handle
  Surface 3,                              !- Name