!- NOTE: Auto-generated from /test/osw_files/SFD_HVACSizing_Load_2story_CS_GRG_FA_ASHP_DuctsInCS.osw

OS:Version,
  {e637c025-b19f-4717-a1f0-4e1516c427ee}, !- Handle
  2.6.0;                                  !- Version Identifier

OS:Building,
  {de5615a0-776c-4dad-a71a-9142a46ba81d}, !- Handle
  Building 1,                             !- Name
  ,                                       !- Building Sector Type
  22.5,                                   !- North Axis {deg}
  ,                                       !- Nominal Floor to Floor Height {m}
  ,                                       !- Space Type Name
  ,                                       !- Default Construction Set Name
  ,                                       !- Default Schedule Set Name
  3,                                      !- Standards Number of Stories
  3,                                      !- Standards Number of Above Ground Stories
  singlefamilydetached,                   !- Standards Building Type
  1;                                      !- Standards Number of Living Units

OS:Facility,
  {b6cf9f5b-8ab6-4cb3-a4b3-05423e4f573a}; !- Handle

OS:Site,
  {f120bbbe-4854-4463-bcd8-262e1a7b10b2}, !- Handle
  Denver Intl Ap_CO_USA,                  !- Name
  39.83,                                  !- Latitude {deg}
  -104.65,                                !- Longitude {deg}
  -7,                                     !- Time Zone {hr}
  1650,                                   !- Elevation {m}
  Suburbs;                                !- Terrain

OS:SimulationControl,
  {fe403de6-92c6-4cfc-a249-3262d0afdf60}, !- Handle
  ,                                       !- Do Zone Sizing Calculation
  ,                                       !- Do System Sizing Calculation
  ,                                       !- Do Plant Sizing Calculation
  No;                                     !- Run Simulation for Sizing Periods

OS:Sizing:Parameters,
  {5a6318ad-dbf5-4b2e-88cc-0227dcc77742}, !- Handle
  1.25,                                   !- Heating Sizing Factor
  1.15;                                   !- Cooling Sizing Factor

OS:Timestep,
  {124f4853-8527-4c06-839d-829b6643136e}, !- Handle
  6;                                      !- Number of Timesteps per Hour

OS:ShadowCalculation,
  {6d37e48c-7c40-4233-ae27-1d8a80842abd}, !- Handle
  20,                                     !- Calculation Frequency
  200;                                    !- Maximum Figures in Shadow Overlap Calculations

OS:HeatBalanceAlgorithm,
  {1f203dcf-d943-45f7-80c0-0c1c2b8b41c6}, !- Handle
  ConductionTransferFunction,             !- Algorithm
  200;                                    !- Surface Temperature Upper Limit {C}

OS:RunPeriod,
  {e01d5cf3-a4f8-47a1-b5ab-0ecacbad7e7b}, !- Handle
  Run Period 1,                           !- Name
  1,                                      !- Begin Month
  1,                                      !- Begin Day of Month
  12,                                     !- End Month
  31,                                     !- End Day of Month
  ,                                       !- Use Weather File Holidays and Special Days
  ,                                       !- Use Weather File Daylight Saving Period
  ,                                       !- Apply Weekend Holiday Rule
  ,                                       !- Use Weather File Rain Indicators
  ,                                       !- Use Weather File Snow Indicators
  ;                                       !- Number of Times Runperiod to be Repeated

OS:LifeCycleCost:Parameters,
  {069db737-106d-4438-abac-931a33af0877}, !- Handle
  ,                                       !- Analysis Type
  ,                                       !- Discounting Convention
  ,                                       !- Inflation Approach
  ,                                       !- Real Discount Rate
  ,                                       !- Nominal Discount Rate
  ,                                       !- Inflation
  ,                                       !- Base Date Month
  ,                                       !- Base Date Year
  ,                                       !- Service Date Month
  ,                                       !- Service Date Year
  ;                                       !- Length of Study Period in Years

OS:SurfaceConvectionAlgorithm:Outside,
  {1fe879d5-dbd9-4c2f-a38a-ca102ac7d646}, !- Handle
  DOE-2;                                  !- Algorithm

OS:SurfaceConvectionAlgorithm:Inside,
  {4d5965fa-2e88-4848-a569-80fa6e0d84d7}, !- Handle
  TARP;                                   !- Algorithm

OS:ZoneCapacitanceMultiplier:ResearchSpecial,
  {ba3d5d6b-97fa-4064-b41a-e85617af33a3}, !- Handle
  ,                                       !- Temperature Capacity Multiplier
  15,                                     !- Humidity Capacity Multiplier
  ;                                       !- Carbon Dioxide Capacity Multiplier

OS:WeatherFile,
  {9b9e5fea-33c6-4b4d-a7ff-5d9d31e53a2c}, !- Handle
  Denver Intl Ap,                         !- City
  CO,                                     !- State Province Region
  USA,                                    !- Country
  TMY3,                                   !- Data Source
  725650,                                 !- WMO Number
  39.83,                                  !- Latitude {deg}
  -104.65,                                !- Longitude {deg}
  -7,                                     !- Time Zone {hr}
  1650,                                   !- Elevation {m}
  file:../tests/USA_CO_Denver_Intl_AP_725650_TMY3.epw, !- Url
  E23378AA;                               !- Checksum

OS:BuildingUnit,
  {198c00d3-5261-42d9-a0cc-9dfdd82fc1fc}, !- Handle
  EPWWeatherInfo,                         !- Name
  ,                                       !- Rendering Color
  Residential;                            !- Building Unit Type

OS:AdditionalProperties,
  {f0b33acd-c487-4aed-943b-d03b4c178792}, !- Handle
  {198c00d3-5261-42d9-a0cc-9dfdd82fc1fc}, !- Object Name
  EPWHeaderCity,                          !- Feature Name 1
  String,                                 !- Feature Data Type 1
  Denver Intl Ap,                         !- Feature Value 1
  EPWHeaderState,                         !- Feature Name 2
  String,                                 !- Feature Data Type 2
  CO,                                     !- Feature Value 2
  EPWHeaderCountry,                       !- Feature Name 3
  String,                                 !- Feature Data Type 3
  USA,                                    !- Feature Value 3
  EPWHeaderDataSource,                    !- Feature Name 4
  String,                                 !- Feature Data Type 4
  TMY3,                                   !- Feature Value 4
  EPWHeaderStation,                       !- Feature Name 5
  String,                                 !- Feature Data Type 5
  725650,                                 !- Feature Value 5
  EPWHeaderLatitude,                      !- Feature Name 6
  Double,                                 !- Feature Data Type 6
  39.829999999999998,                     !- Feature Value 6
  EPWHeaderLongitude,                     !- Feature Name 7
  Double,                                 !- Feature Data Type 7
  -104.65000000000001,                    !- Feature Value 7
  EPWHeaderTimezone,                      !- Feature Name 8
  Double,                                 !- Feature Data Type 8
  -7,                                     !- Feature Value 8
  EPWHeaderAltitude,                      !- Feature Name 9
  Double,                                 !- Feature Data Type 9
  5413.3858267716532,                     !- Feature Value 9
  EPWHeaderLocalPressure,                 !- Feature Name 10
  Double,                                 !- Feature Data Type 10
  0.81937567683596546,                    !- Feature Value 10
  EPWDataAnnualAvgDrybulb,                !- Feature Name 11
  Double,                                 !- Feature Data Type 11
  51.575616438356228,                     !- Feature Value 11
  EPWDataAnnualMinDrybulb,                !- Feature Name 12
  Double,                                 !- Feature Data Type 12
  -2.9200000000000017,                    !- Feature Value 12
  EPWDataAnnualMaxDrybulb,                !- Feature Name 13
  Double,                                 !- Feature Data Type 13
  104,                                    !- Feature Value 13
  EPWDataCDD50F,                          !- Feature Name 14
  Double,                                 !- Feature Data Type 14
  3072.2925000000005,                     !- Feature Value 14
  EPWDataCDD65F,                          !- Feature Name 15
  Double,                                 !- Feature Data Type 15
  883.62000000000035,                     !- Feature Value 15
  EPWDataHDD50F,                          !- Feature Name 16
  Double,                                 !- Feature Data Type 16
  2497.1925000000001,                     !- Feature Value 16
  EPWDataHDD65F,                          !- Feature Name 17
  Double,                                 !- Feature Data Type 17
  5783.5200000000013,                     !- Feature Value 17
  EPWDataAnnualAvgWindspeed,              !- Feature Name 18
  Double,                                 !- Feature Data Type 18
  3.9165296803649667,                     !- Feature Value 18
  EPWDataMonthlyAvgDrybulbs,              !- Feature Name 19
  String,                                 !- Feature Data Type 19
  33.4191935483871&#4431.90142857142857&#4443.02620967741937&#4442.48624999999999&#4459.877741935483854&#4473.57574999999997&#4472.07975806451608&#4472.70008064516134&#4466.49200000000006&#4450.079112903225806&#4437.218250000000005&#4434.582177419354835, !- Feature Value 19
  EPWDataGroundMonthlyTemps,              !- Feature Name 20
  String,                                 !- Feature Data Type 20
  44.08306285945173&#4440.89570904991865&#4440.64045432632048&#4442.153016571250646&#4448.225111118704206&#4454.268919273837525&#4459.508577937551024&#4462.82777283423508&#4463.10975667174995&#4460.41014950381947&#4455.304105212311526&#4449.445696474514364, !- Feature Value 20
  EPWDataWSF,                             !- Feature Name 21
  Double,                                 !- Feature Data Type 21
  0.58999999999999997,                    !- Feature Value 21
  EPWDataMonthlyAvgDailyHighDrybulbs,     !- Feature Name 22
  String,                                 !- Feature Data Type 22
  47.41032258064516&#4446.58642857142857&#4455.15032258064517&#4453.708&#4472.80193548387098&#4488.67600000000002&#4486.1858064516129&#4485.87225806451613&#4482.082&#4463.18064516129033&#4448.73400000000001&#4448.87935483870968, !- Feature Value 22
  EPWDataMonthlyAvgDailyLowDrybulbs,      !- Feature Name 23
  String,                                 !- Feature Data Type 23
  19.347741935483874&#4419.856428571428573&#4430.316129032258065&#4431.112&#4447.41612903225806&#4457.901999999999994&#4459.063870967741934&#4460.956774193548384&#4452.352000000000004&#4438.41612903225806&#4427.002000000000002&#4423.02903225806451, !- Feature Value 23
  EPWDesignHeatingDrybulb,                !- Feature Name 24
  Double,                                 !- Feature Data Type 24
  6.8000000000000007,                     !- Feature Value 24
  EPWDesignHeatingWindspeed,              !- Feature Name 25
  Double,                                 !- Feature Data Type 25
  12,                                     !- Feature Value 25
  EPWDesignCoolingDrybulb,                !- Feature Name 26
  Double,                                 !- Feature Data Type 26
  91.760000000000005,                     !- Feature Value 26
  EPWDesignCoolingWetbulb,                !- Feature Name 27
  Double,                                 !- Feature Data Type 27
  60.079999999999998,                     !- Feature Value 27
  EPWDesignCoolingHumidityRatio,          !- Feature Name 28
  Double,                                 !- Feature Data Type 28
  0.006050392196571398,                   !- Feature Value 28
  EPWDesignCoolingWindspeed,              !- Feature Name 29
  Double,                                 !- Feature Data Type 29
  4.2000000000000002,                     !- Feature Value 29
  EPWDesignDailyTemperatureRange,         !- Feature Name 30
  Double,                                 !- Feature Data Type 30
  27.359999999999999,                     !- Feature Value 30
  EPWDesignDehumidDrybulb,                !- Feature Name 31
  Double,                                 !- Feature Data Type 31
  67.280000000000001,                     !- Feature Value 31
  EPWDesignDehumidHumidityRatio,          !- Feature Name 32
  Double,                                 !- Feature Data Type 32
  0.012295426899271008,                   !- Feature Value 32
  EPWDesignCoolingDirectNormal,           !- Feature Name 33
  Double,                                 !- Feature Data Type 33
  985,                                    !- Feature Value 33
  EPWDesignCoolingDiffuseHorizontal,      !- Feature Name 34
  Double,                                 !- Feature Data Type 34
  84;                                     !- Feature Value 34

OS:YearDescription,
  {ab9900d6-afe7-4e95-969f-3ef5b45f660a}, !- Handle
  ,                                       !- Calendar Year
  Monday;                                 !- Day of Week for Start Day

OS:ClimateZones,
  {96a75898-481d-4882-9c0b-dd24252ef882}, !- Handle
  ,                                       !- Active Institution
  ,                                       !- Active Year
  ,                                       !- Climate Zone Institution Name 1
  ,                                       !- Climate Zone Document Name 1
  ,                                       !- Climate Zone Document Year 1
  ,                                       !- Climate Zone Value 1
  Building America,                       !- Climate Zone Institution Name 2
  ,                                       !- Climate Zone Document Name 2
  0,                                      !- Climate Zone Document Year 2
  Cold;                                   !- Climate Zone Value 2

OS:Site:WaterMainsTemperature,
  {37382939-0ce0-467e-8a57-85d96f17c39e}, !- Handle
  Correlation,                            !- Calculation Method
  ,                                       !- Temperature Schedule Name
  10.8753424657535,                       !- Annual Average Outdoor Air Temperature {C}
  23.1524007936508;                       !- Maximum Difference In Monthly Average Outdoor Air Temperatures {deltaC}

OS:RunPeriodControl:DaylightSavingTime,
  {b08367e7-1fa2-42ad-93d9-34449707492b}, !- Handle
  4/7,                                    !- Start Date
  10/26;                                  !- End Date

OS:Site:GroundTemperature:Deep,
  {1d280884-77ac-4149-8446-66edf770710c}, !- Handle
  10.8753424657535,                       !- January Deep Ground Temperature {C}
  10.8753424657535,                       !- February Deep Ground Temperature {C}
  10.8753424657535,                       !- March Deep Ground Temperature {C}
  10.8753424657535,                       !- April Deep Ground Temperature {C}
  10.8753424657535,                       !- May Deep Ground Temperature {C}
  10.8753424657535,                       !- June Deep Ground Temperature {C}
  10.8753424657535,                       !- July Deep Ground Temperature {C}
  10.8753424657535,                       !- August Deep Ground Temperature {C}
  10.8753424657535,                       !- September Deep Ground Temperature {C}
  10.8753424657535,                       !- October Deep Ground Temperature {C}
  10.8753424657535,                       !- November Deep Ground Temperature {C}
  10.8753424657535;                       !- December Deep Ground Temperature {C}

OS:ThermalZone,
  {901905e6-74d3-43f7-ab6b-9a681fe8b96d}, !- Handle
  living zone,                            !- Name
  ,                                       !- Multiplier
  ,                                       !- Ceiling Height {m}
  ,                                       !- Volume {m3}
  ,                                       !- Floor Area {m2}
  ,                                       !- Zone Inside Convection Algorithm
  ,                                       !- Zone Outside Convection Algorithm
  ,                                       !- Zone Conditioning Equipment List Name
  {154c63cf-9cca-4ac4-b8ed-1a31f8b4beb8}, !- Zone Air Inlet Port List
  {733181e2-aeab-424d-8039-44a018feae97}, !- Zone Air Exhaust Port List
  {847bd7f2-c1dc-4092-82e8-6fe180010114}, !- Zone Air Node Name
  {570d20d3-aa05-4233-9e4c-b03a2d97822b}, !- Zone Return Air Node Name
  ,                                       !- Primary Daylighting Control Name
  ,                                       !- Fraction of Zone Controlled by Primary Daylighting Control
  ,                                       !- Secondary Daylighting Control Name
  ,                                       !- Fraction of Zone Controlled by Secondary Daylighting Control
  ,                                       !- Illuminance Map Name
  ,                                       !- Group Rendering Name
  {aa0e5a51-0d23-4582-994c-12209e92dc2a}, !- Thermostat Name
  No;                                     !- Use Ideal Air Loads

OS:Node,
  {edd7042a-a09d-4655-a81b-99b565749bbc}, !- Handle
  Node 1,                                 !- Name
  {847bd7f2-c1dc-4092-82e8-6fe180010114}, !- Inlet Port
  ;                                       !- Outlet Port

OS:Connection,
  {847bd7f2-c1dc-4092-82e8-6fe180010114}, !- Handle
  {cae89e93-fb95-4b7d-bf93-37154efa4d81}, !- Name
  {901905e6-74d3-43f7-ab6b-9a681fe8b96d}, !- Source Object
  11,                                     !- Outlet Port
  {edd7042a-a09d-4655-a81b-99b565749bbc}, !- Target Object
  2;                                      !- Inlet Port

OS:PortList,
  {154c63cf-9cca-4ac4-b8ed-1a31f8b4beb8}, !- Handle
  {eaef0dd8-cb14-4c59-b32c-79057ee4150a}, !- Name
  {901905e6-74d3-43f7-ab6b-9a681fe8b96d}, !- HVAC Component
  {1f8d0891-5afe-4820-b2cd-a1422920650c}; !- Port 1

OS:PortList,
  {733181e2-aeab-424d-8039-44a018feae97}, !- Handle
  {824a8579-0c43-4b68-8d30-afaaac7ab6ee}, !- Name
  {901905e6-74d3-43f7-ab6b-9a681fe8b96d}; !- HVAC Component

OS:Sizing:Zone,
  {4a4f95d6-4e1c-4ddf-b153-0efdfa2991ef}, !- Handle
  {901905e6-74d3-43f7-ab6b-9a681fe8b96d}, !- Zone or ZoneList Name
  SupplyAirTemperature,                   !- Zone Cooling Design Supply Air Temperature Input Method
  14,                                     !- Zone Cooling Design Supply Air Temperature {C}
  11.11,                                  !- Zone Cooling Design Supply Air Temperature Difference {deltaC}
  SupplyAirTemperature,                   !- Zone Heating Design Supply Air Temperature Input Method
  40,                                     !- Zone Heating Design Supply Air Temperature {C}
  11.11,                                  !- Zone Heating Design Supply Air Temperature Difference {deltaC}
  0.0085,                                 !- Zone Cooling Design Supply Air Humidity Ratio {kg-H2O/kg-air}
  0.008,                                  !- Zone Heating Design Supply Air Humidity Ratio {kg-H2O/kg-air}
  ,                                       !- Zone Heating Sizing Factor
  ,                                       !- Zone Cooling Sizing Factor
  DesignDay,                              !- Cooling Design Air Flow Method
  ,                                       !- Cooling Design Air Flow Rate {m3/s}
  ,                                       !- Cooling Minimum Air Flow per Zone Floor Area {m3/s-m2}
  ,                                       !- Cooling Minimum Air Flow {m3/s}
  ,                                       !- Cooling Minimum Air Flow Fraction
  DesignDay,                              !- Heating Design Air Flow Method
  ,                                       !- Heating Design Air Flow Rate {m3/s}
  ,                                       !- Heating Maximum Air Flow per Zone Floor Area {m3/s-m2}
  ,                                       !- Heating Maximum Air Flow {m3/s}
  ,                                       !- Heating Maximum Air Flow Fraction
  ,                                       !- Design Zone Air Distribution Effectiveness in Cooling Mode
  ,                                       !- Design Zone Air Distribution Effectiveness in Heating Mode
  No,                                     !- Account for Dedicated Outdoor Air System
  NeutralSupplyAir,                       !- Dedicated Outdoor Air System Control Strategy
  autosize,                               !- Dedicated Outdoor Air Low Setpoint Temperature for Design {C}
  autosize;                               !- Dedicated Outdoor Air High Setpoint Temperature for Design {C}

OS:ZoneHVAC:EquipmentList,
  {1b1216dd-bacd-41cc-9089-775b604a135a}, !- Handle
  Zone HVAC Equipment List 1,             !- Name
  {901905e6-74d3-43f7-ab6b-9a681fe8b96d}, !- Thermal Zone
  {c796949b-cbcb-4355-9307-61a764e35782}, !- Zone Equipment 1
  1,                                      !- Zone Equipment Cooling Sequence 1
  1;                                      !- Zone Equipment Heating or No-Load Sequence 1

OS:ThermalZone,
  {96f2baba-7b86-45d5-893c-7cabaaf9f5ac}, !- Handle
  garage zone,                            !- Name
  ,                                       !- Multiplier
  ,                                       !- Ceiling Height {m}
  ,                                       !- Volume {m3}
  ,                                       !- Floor Area {m2}
  ,                                       !- Zone Inside Convection Algorithm
  ,                                       !- Zone Outside Convection Algorithm
  ,                                       !- Zone Conditioning Equipment List Name
  {29731c0a-dd99-4001-ab5e-3f4f63a0f76f}, !- Zone Air Inlet Port List
  {bc350505-c8b3-4463-b1a2-0eaec1bbcef7}, !- Zone Air Exhaust Port List
  {9e77ecdd-26cc-4bf9-9c3e-75eee9295779}, !- Zone Air Node Name
  ,                                       !- Zone Return Air Node Name
  ,                                       !- Primary Daylighting Control Name
  ,                                       !- Fraction of Zone Controlled by Primary Daylighting Control
  ,                                       !- Secondary Daylighting Control Name
  ,                                       !- Fraction of Zone Controlled by Secondary Daylighting Control
  ,                                       !- Illuminance Map Name
  ,                                       !- Group Rendering Name
  ,                                       !- Thermostat Name
  No;                                     !- Use Ideal Air Loads

OS:Node,
  {ce438395-1838-45c1-9644-73a26eefc36d}, !- Handle
  Node 2,                                 !- Name
  {9e77ecdd-26cc-4bf9-9c3e-75eee9295779}, !- Inlet Port
  ;                                       !- Outlet Port

OS:Connection,
  {9e77ecdd-26cc-4bf9-9c3e-75eee9295779}, !- Handle
  {f8b6da5f-5329-480b-8836-9c41ac8bcc67}, !- Name
  {96f2baba-7b86-45d5-893c-7cabaaf9f5ac}, !- Source Object
  11,                                     !- Outlet Port
  {ce438395-1838-45c1-9644-73a26eefc36d}, !- Target Object
  2;                                      !- Inlet Port

OS:PortList,
  {29731c0a-dd99-4001-ab5e-3f4f63a0f76f}, !- Handle
  {423afecb-64af-4867-8d4c-e4bcb38b0016}, !- Name
  {96f2baba-7b86-45d5-893c-7cabaaf9f5ac}; !- HVAC Component

OS:PortList,
  {bc350505-c8b3-4463-b1a2-0eaec1bbcef7}, !- Handle
  {ed6a855d-d11b-4597-b880-ff6d3833402e}, !- Name
  {96f2baba-7b86-45d5-893c-7cabaaf9f5ac}; !- HVAC Component

OS:Sizing:Zone,
  {01036b79-eb5e-43a1-8f07-aab5efc58189}, !- Handle
  {96f2baba-7b86-45d5-893c-7cabaaf9f5ac}, !- Zone or ZoneList Name
  SupplyAirTemperature,                   !- Zone Cooling Design Supply Air Temperature Input Method
  14,                                     !- Zone Cooling Design Supply Air Temperature {C}
  11.11,                                  !- Zone Cooling Design Supply Air Temperature Difference {deltaC}
  SupplyAirTemperature,                   !- Zone Heating Design Supply Air Temperature Input Method
  40,                                     !- Zone Heating Design Supply Air Temperature {C}
  11.11,                                  !- Zone Heating Design Supply Air Temperature Difference {deltaC}
  0.0085,                                 !- Zone Cooling Design Supply Air Humidity Ratio {kg-H2O/kg-air}
  0.008,                                  !- Zone Heating Design Supply Air Humidity Ratio {kg-H2O/kg-air}
  ,                                       !- Zone Heating Sizing Factor
  ,                                       !- Zone Cooling Sizing Factor
  DesignDay,                              !- Cooling Design Air Flow Method
  ,                                       !- Cooling Design Air Flow Rate {m3/s}
  ,                                       !- Cooling Minimum Air Flow per Zone Floor Area {m3/s-m2}
  ,                                       !- Cooling Minimum Air Flow {m3/s}
  ,                                       !- Cooling Minimum Air Flow Fraction
  DesignDay,                              !- Heating Design Air Flow Method
  ,                                       !- Heating Design Air Flow Rate {m3/s}
  ,                                       !- Heating Maximum Air Flow per Zone Floor Area {m3/s-m2}
  ,                                       !- Heating Maximum Air Flow {m3/s}
  ,                                       !- Heating Maximum Air Flow Fraction
  ,                                       !- Design Zone Air Distribution Effectiveness in Cooling Mode
  ,                                       !- Design Zone Air Distribution Effectiveness in Heating Mode
  No,                                     !- Account for Dedicated Outdoor Air System
  NeutralSupplyAir,                       !- Dedicated Outdoor Air System Control Strategy
  autosize,                               !- Dedicated Outdoor Air Low Setpoint Temperature for Design {C}
  autosize;                               !- Dedicated Outdoor Air High Setpoint Temperature for Design {C}

OS:ZoneHVAC:EquipmentList,
  {a735a5ee-42c1-4ae0-9479-4d62a3468054}, !- Handle
  Zone HVAC Equipment List 2,             !- Name
  {96f2baba-7b86-45d5-893c-7cabaaf9f5ac}; !- Thermal Zone

OS:Space,
  {6ce32507-5de1-40ee-a068-79a8253eced6}, !- Handle
  garage space,                           !- Name
  {cf6f93e5-42d2-4733-a501-40b06afb784f}, !- Space Type Name
  ,                                       !- Default Construction Set Name
  ,                                       !- Default Schedule Set Name
  -0,                                     !- Direction of Relative North {deg}
  0,                                      !- X Origin {m}
  0,                                      !- Y Origin {m}
  0,                                      !- Z Origin {m}
  ,                                       !- Building Story Name
  {96f2baba-7b86-45d5-893c-7cabaaf9f5ac}; !- Thermal Zone Name

OS:Surface,
  {19d07a6c-839a-4734-9d15-1f71a631b665}, !- Handle
  Surface 1,                              !- Name
  Floor,                                  !- Surface Type
  {10b0a90a-5ff6-44d9-98dd-523a0bc4939e}, !- Construction Name
  {6ce32507-5de1-40ee-a068-79a8253eced6}, !- Space Name
  Foundation,                             !- Outside Boundary Condition
  {aa7b9ba1-bea6-42a9-8bf4-889f1ca0c63b}, !- Outside Boundary Condition Object
  NoSun,                                  !- Sun Exposure
  NoWind,                                 !- Wind Exposure
  ,                                       !- View Factor to Ground
  ,                                       !- Number of Vertices
  7.6199999993904, -3.048, 0,             !- X,Y,Z Vertex 1 {m}
  7.6199999993904, 3.048, 0,              !- X,Y,Z Vertex 2 {m}
  11.2775999993904, 3.048, 0,             !- X,Y,Z Vertex 3 {m}
  11.2775999993904, -3.048, 0;            !- X,Y,Z Vertex 4 {m}

OS:Surface,
  {deec60ba-9c4b-42a2-ae58-3f074ee70371}, !- Handle
  Surface 2,                              !- Name
  Wall,                                   !- Surface Type
  {2362f1fa-c97f-44d8-b789-651d695ce86a}, !- Construction Name
  {6ce32507-5de1-40ee-a068-79a8253eced6}, !- Space Name
  Surface,                                !- Outside Boundary Condition
  {396edc2c-23a4-4c3d-8547-faf6fcc56ac0}, !- Outside Boundary Condition Object
  NoSun,                                  !- Sun Exposure
  NoWind,                                 !- Wind Exposure
  ,                                       !- View Factor to Ground
  ,                                       !- Number of Vertices
  7.6199999993904, 3.048, 2.4384,         !- X,Y,Z Vertex 1 {m}
  7.6199999993904, 3.048, 0,              !- X,Y,Z Vertex 2 {m}
  7.6199999993904, 0, 0,                  !- X,Y,Z Vertex 3 {m}
  7.6199999993904, 0, 2.4384;             !- X,Y,Z Vertex 4 {m}

OS:Surface,
  {fb259da3-0c38-479d-9338-afd935baed20}, !- Handle
  Surface 3,                              !- Name
  Wall,                                   !- Surface Type
  {2362f1fa-c97f-44d8-b789-651d695ce86a}, !- Construction Name
  {6ce32507-5de1-40ee-a068-79a8253eced6}, !- Space Name
  Surface,                                !- Outside Boundary Condition
  {3bb6d454-5057-436c-a0c4-4a593ed15eed}, !- Outside Boundary Condition Object
  NoSun,                                  !- Sun Exposure
  NoWind,                                 !- Wind Exposure
  ,                                       !- View Factor to Ground
  ,                                       !- Number of Vertices
  11.2775999993904, 3.048, 2.4384,        !- X,Y,Z Vertex 1 {m}
  11.2775999993904, 3.048, 0,             !- X,Y,Z Vertex 2 {m}
  7.6199999993904, 3.048, 0,              !- X,Y,Z Vertex 3 {m}