!- NOTE: Auto-generated from /test/osw_files/SFD_HVACSizing_Equip_GF_ACV_Fixed.osw

OS:Version,
  {4d21dfd5-8045-4e51-bfa0-0729dc70c237}, !- Handle
  2.7.0;                                  !- Version Identifier

OS:Building,
  {c753b8fd-564d-4d80-8831-bd9ae9bdc190}, !- Handle
  Building 1,                             !- Name
  ,                                       !- Building Sector Type
  22.5,                                   !- North Axis {deg}
  ,                                       !- Nominal Floor to Floor Height {m}
  ,                                       !- Space Type Name
  ,                                       !- Default Construction Set Name
  ,                                       !- Default Schedule Set Name
  4,                                      !- Standards Number of Stories
  3,                                      !- Standards Number of Above Ground Stories
  ,                                       !- Standards Template
  singlefamilydetached,                   !- Standards Building Type
  1;                                      !- Standards Number of Living Units

OS:Facility,
  {a1c08aae-35bf-4aad-9ae4-0e8a6e957986}; !- Handle

OS:Site,
  {c6823e29-5665-49c0-92af-2131882df2c0}, !- Handle
  Denver Intl Ap_CO_USA,                  !- Name
  39.83,                                  !- Latitude {deg}
  -104.65,                                !- Longitude {deg}
  -7,                                     !- Time Zone {hr}
  1650,                                   !- Elevation {m}
  Suburbs;                                !- Terrain

OS:SimulationControl,
  {f990ef92-ef77-4ada-a717-80b7999c73ca}, !- Handle
  ,                                       !- Do Zone Sizing Calculation
  ,                                       !- Do System Sizing Calculation
  ,                                       !- Do Plant Sizing Calculation
  No;                                     !- Run Simulation for Sizing Periods

OS:Sizing:Parameters,
  {b0db0364-900e-4a8b-96b2-0a8546b2736a}, !- Handle
  1.25,                                   !- Heating Sizing Factor
  1.15;                                   !- Cooling Sizing Factor

OS:Timestep,
  {06322f47-7d10-4eb3-b8e6-797142d54d44}, !- Handle
  6;                                      !- Number of Timesteps per Hour

OS:ShadowCalculation,
  {495e7d9e-787a-4fb0-b46e-57867dbf77b2}, !- Handle
  20,                                     !- Calculation Frequency
  200;                                    !- Maximum Figures in Shadow Overlap Calculations

OS:HeatBalanceAlgorithm,
  {40a8e0b9-6f83-4c03-b66e-01e4158bc02b}, !- Handle
  ConductionTransferFunction,             !- Algorithm
  200;                                    !- Surface Temperature Upper Limit {C}

OS:RunPeriod,
  {ca79dae6-89e8-44f1-8a1a-ee16c6c1a47b}, !- Handle
  Run Period 1,                           !- Name
  1,                                      !- Begin Month
  1,                                      !- Begin Day of Month
  12,                                     !- End Month
  31,                                     !- End Day of Month
  ,                                       !- Use Weather File Holidays and Special Days
  ,                                       !- Use Weather File Daylight Saving Period
  ,                                       !- Apply Weekend Holiday Rule
  ,                                       !- Use Weather File Rain Indicators
  ,                                       !- Use Weather File Snow Indicators
  ;                                       !- Number of Times Runperiod to be Repeated

OS:LifeCycleCost:Parameters,
  {32c0082a-6b15-466d-918c-9d710c7441b5}, !- Handle
  ,                                       !- Analysis Type
  ,                                       !- Discounting Convention
  ,                                       !- Inflation Approach
  ,                                       !- Real Discount Rate
  ,                                       !- Nominal Discount Rate
  ,                                       !- Inflation
  ,                                       !- Base Date Month
  ,                                       !- Base Date Year
  ,                                       !- Service Date Month
  ,                                       !- Service Date Year
  ;                                       !- Length of Study Period in Years

OS:SurfaceConvectionAlgorithm:Outside,
  {5595d035-7dc5-4640-915a-3813dcb449d4}, !- Handle
  DOE-2;                                  !- Algorithm

OS:SurfaceConvectionAlgorithm:Inside,
  {c3502ce8-f1c7-4fee-bd42-eb2a70976f54}, !- Handle
  TARP;                                   !- Algorithm

OS:ZoneCapacitanceMultiplier:ResearchSpecial,
  {b11e2adb-b61c-417e-ac94-0d898e356f3d}, !- Handle
  ,                                       !- Temperature Capacity Multiplier
  15,                                     !- Humidity Capacity Multiplier
  ;                                       !- Carbon Dioxide Capacity Multiplier

OS:WeatherFile,
  {83026973-ecc3-48f6-94c1-3b2d5b39bd01}, !- Handle
  Denver Intl Ap,                         !- City
  CO,                                     !- State Province Region
  USA,                                    !- Country
  TMY3,                                   !- Data Source
  725650,                                 !- WMO Number
  39.83,                                  !- Latitude {deg}
  -104.65,                                !- Longitude {deg}
  -7,                                     !- Time Zone {hr}
  1650,                                   !- Elevation {m}
  file:../tests/USA_CO_Denver_Intl_AP_725650_TMY3.epw, !- Url
  E23378AA;                               !- Checksum

OS:AdditionalProperties,
  {d8ec2be6-b886-4ad8-b5a1-e36541894d62}, !- Handle
  {83026973-ecc3-48f6-94c1-3b2d5b39bd01}, !- Object Name
  EPWHeaderCity,                          !- Feature Name 1
  String,                                 !- Feature Data Type 1
  Denver Intl Ap,                         !- Feature Value 1
  EPWHeaderState,                         !- Feature Name 2
  String,                                 !- Feature Data Type 2
  CO,                                     !- Feature Value 2
  EPWHeaderCountry,                       !- Feature Name 3
  String,                                 !- Feature Data Type 3
  USA,                                    !- Feature Value 3
  EPWHeaderDataSource,                    !- Feature Name 4
  String,                                 !- Feature Data Type 4
  TMY3,                                   !- Feature Value 4
  EPWHeaderStation,                       !- Feature Name 5
  String,                                 !- Feature Data Type 5
  725650,                                 !- Feature Value 5
  EPWHeaderLatitude,                      !- Feature Name 6
  Double,                                 !- Feature Data Type 6
  39.829999999999998,                     !- Feature Value 6
  EPWHeaderLongitude,                     !- Feature Name 7
  Double,                                 !- Feature Data Type 7
  -104.65000000000001,                    !- Feature Value 7
  EPWHeaderTimezone,                      !- Feature Name 8
  Double,                                 !- Feature Data Type 8
  -7,                                     !- Feature Value 8
  EPWHeaderAltitude,                      !- Feature Name 9
  Double,                                 !- Feature Data Type 9
  5413.3858267716532,                     !- Feature Value 9
  EPWHeaderLocalPressure,                 !- Feature Name 10
  Double,                                 !- Feature Data Type 10
  0.81937567683596546,                    !- Feature Value 10
  EPWHeaderRecordsPerHour,                !- Feature Name 11
  Double,                                 !- Feature Data Type 11
  1,                                      !- Feature Value 11
  EPWDataAnnualAvgDrybulb,                !- Feature Name 12
  Double,                                 !- Feature Data Type 12
  51.575616438356228,                     !- Feature Value 12
  EPWDataAnnualMinDrybulb,                !- Feature Name 13
  Double,                                 !- Feature Data Type 13
  -2.9200000000000017,                    !- Feature Value 13
  EPWDataAnnualMaxDrybulb,                !- Feature Name 14
  Double,                                 !- Feature Data Type 14
  104,                                    !- Feature Value 14
  EPWDataCDD50F,                          !- Feature Name 15
  Double,                                 !- Feature Data Type 15
  3072.2925000000005,                     !- Feature Value 15
  EPWDataCDD65F,                          !- Feature Name 16
  Double,                                 !- Feature Data Type 16
  883.62000000000035,                     !- Feature Value 16
  EPWDataHDD50F,                          !- Feature Name 17
  Double,                                 !- Feature Data Type 17
  2497.1925000000001,                     !- Feature Value 17
  EPWDataHDD65F,                          !- Feature Name 18
  Double,                                 !- Feature Data Type 18
  5783.5200000000013,                     !- Feature Value 18
  EPWDataAnnualAvgWindspeed,              !- Feature Name 19
  Double,                                 !- Feature Data Type 19
  3.9165296803649667,                     !- Feature Value 19
  EPWDataMonthlyAvgDrybulbs,              !- Feature Name 20
  String,                                 !- Feature Data Type 20
  33.4191935483871&#4431.90142857142857&#4443.02620967741937&#4442.48624999999999&#4459.877741935483854&#4473.57574999999997&#4472.07975806451608&#4472.70008064516134&#4466.49200000000006&#4450.079112903225806&#4437.218250000000005&#4434.582177419354835, !- Feature Value 20
  EPWDataGroundMonthlyTemps,              !- Feature Name 21
  String,                                 !- Feature Data Type 21
  44.08306285945173&#4440.89570904991865&#4440.64045432632048&#4442.153016571250646&#4448.225111118704206&#4454.268919273837525&#4459.508577937551024&#4462.82777283423508&#4463.10975667174995&#4460.41014950381947&#4455.304105212311526&#4449.445696474514364, !- Feature Value 21
  EPWDataWSF,                             !- Feature Name 22
  Double,                                 !- Feature Data Type 22
  0.58999999999999997,                    !- Feature Value 22
  EPWDataMonthlyAvgDailyHighDrybulbs,     !- Feature Name 23
  String,                                 !- Feature Data Type 23
  47.41032258064516&#4446.58642857142857&#4455.15032258064517&#4453.708&#4472.80193548387098&#4488.67600000000002&#4486.1858064516129&#4485.87225806451613&#4482.082&#4463.18064516129033&#4448.73400000000001&#4448.87935483870968, !- Feature Value 23
  EPWDataMonthlyAvgDailyLowDrybulbs,      !- Feature Name 24
  String,                                 !- Feature Data Type 24
  19.347741935483874&#4419.856428571428573&#4430.316129032258065&#4431.112&#4447.41612903225806&#4457.901999999999994&#4459.063870967741934&#4460.956774193548384&#4452.352000000000004&#4438.41612903225806&#4427.002000000000002&#4423.02903225806451, !- Feature Value 24
  EPWDesignHeatingDrybulb,                !- Feature Name 25
  Double,                                 !- Feature Data Type 25
  6.8000000000000007,                     !- Feature Value 25
  EPWDesignHeatingWindspeed,              !- Feature Name 26
  Double,                                 !- Feature Data Type 26
  12,                                     !- Feature Value 26
  EPWDesignCoolingDrybulb,                !- Feature Name 27
  Double,                                 !- Feature Data Type 27
  91.760000000000005,                     !- Feature Value 27
  EPWDesignCoolingWetbulb,                !- Feature Name 28
  Double,                                 !- Feature Data Type 28
  60.079999999999998,                     !- Feature Value 28
  EPWDesignCoolingHumidityRatio,          !- Feature Name 29
  Double,                                 !- Feature Data Type 29
  0.006050392196571398,                   !- Feature Value 29
  EPWDesignCoolingWindspeed,              !- Feature Name 30
  Double,                                 !- Feature Data Type 30
  4.2000000000000002,                     !- Feature Value 30
  EPWDesignDailyTemperatureRange,         !- Feature Name 31
  Double,                                 !- Feature Data Type 31
  27.359999999999999,                     !- Feature Value 31
  EPWDesignDehumidDrybulb,                !- Feature Name 32
  Double,                                 !- Feature Data Type 32
  67.280000000000001,                     !- Feature Value 32
  EPWDesignDehumidHumidityRatio,          !- Feature Name 33
  Double,                                 !- Feature Data Type 33
  0.012295426899271008,                   !- Feature Value 33
  EPWDesignCoolingDirectNormal,           !- Feature Name 34
  Double,                                 !- Feature Data Type 34
  985,                                    !- Feature Value 34
  EPWDesignCoolingDiffuseHorizontal,      !- Feature Name 35
  Double,                                 !- Feature Data Type 35
  84;                                     !- Feature Value 35

OS:YearDescription,
  {8c023bb6-6f1d-49a5-b35c-e54f1e1b936b}, !- Handle
  ,                                       !- Calendar Year
  Monday;                                 !- Day of Week for Start Day

OS:ClimateZones,
  {df48e72b-ed07-4996-9d99-d3b454339f29}, !- Handle
  ,                                       !- Active Institution
  ,                                       !- Active Year
  ,                                       !- Climate Zone Institution Name 1
  ,                                       !- Climate Zone Document Name 1
  ,                                       !- Climate Zone Document Year 1
  ,                                       !- Climate Zone Value 1
  Building America,                       !- Climate Zone Institution Name 2
  ,                                       !- Climate Zone Document Name 2
  0,                                      !- Climate Zone Document Year 2
  Cold;                                   !- Climate Zone Value 2

OS:Site:WaterMainsTemperature,
  {81853a6b-2338-4d99-b4c3-3a1dc41a8b85}, !- Handle
  Correlation,                            !- Calculation Method
  ,                                       !- Temperature Schedule Name
  10.8753424657535,                       !- Annual Average Outdoor Air Temperature {C}
  23.1524007936508;                       !- Maximum Difference In Monthly Average Outdoor Air Temperatures {deltaC}

OS:RunPeriodControl:DaylightSavingTime,
  {3f1f3f21-e041-4592-8dc6-7dfbfaaa797b}, !- Handle
  4/7,                                    !- Start Date
  10/26;                                  !- End Date

OS:Site:GroundTemperature:Deep,
  {a51e1fb8-db2e-4404-bd4e-2a2f68461501}, !- Handle
  10.8753424657535,                       !- January Deep Ground Temperature {C}
  10.8753424657535,                       !- February Deep Ground Temperature {C}
  10.8753424657535,                       !- March Deep Ground Temperature {C}
  10.8753424657535,                       !- April Deep Ground Temperature {C}
  10.8753424657535,                       !- May Deep Ground Temperature {C}
  10.8753424657535,                       !- June Deep Ground Temperature {C}
  10.8753424657535,                       !- July Deep Ground Temperature {C}
  10.8753424657535,                       !- August Deep Ground Temperature {C}
  10.8753424657535,                       !- September Deep Ground Temperature {C}
  10.8753424657535,                       !- October Deep Ground Temperature {C}
  10.8753424657535,                       !- November Deep Ground Temperature {C}
  10.8753424657535;                       !- December Deep Ground Temperature {C}

OS:ThermalZone,
  {8de92a4d-34e9-4525-8726-cb47cbf2231b}, !- Handle
  living zone,                            !- Name
  ,                                       !- Multiplier
  ,                                       !- Ceiling Height {m}
  ,                                       !- Volume {m3}
  ,                                       !- Floor Area {m2}
  ,                                       !- Zone Inside Convection Algorithm
  ,                                       !- Zone Outside Convection Algorithm
  ,                                       !- Zone Conditioning Equipment List Name
  {65ee208d-8622-411e-97f5-f93d64b6631a}, !- Zone Air Inlet Port List
  {c2fe3126-3e30-45a0-a363-ddbf4cf6bfb5}, !- Zone Air Exhaust Port List
  {e6f1ff09-21b5-42dc-ba0c-723767a28d9d}, !- Zone Air Node Name
  {22166ff4-67b5-4752-9a43-b185c1899b91}, !- Zone Return Air Port List
  ,                                       !- Primary Daylighting Control Name
  ,                                       !- Fraction of Zone Controlled by Primary Daylighting Control
  ,                                       !- Secondary Daylighting Control Name
  ,                                       !- Fraction of Zone Controlled by Secondary Daylighting Control
  ,                                       !- Illuminance Map Name
  ,                                       !- Group Rendering Name
  {05954475-e0c4-4c25-bdf1-60d6ca27886d}, !- Thermostat Name
  No;                                     !- Use Ideal Air Loads

OS:Node,
  {87ee9d5c-01ee-46c9-b530-ad08b381c3eb}, !- Handle
  Node 1,                                 !- Name
  {e6f1ff09-21b5-42dc-ba0c-723767a28d9d}, !- Inlet Port
  ;                                       !- Outlet Port

OS:Connection,
  {e6f1ff09-21b5-42dc-ba0c-723767a28d9d}, !- Handle
  {05adae55-7686-458e-a946-f8de895c9db9}, !- Name
  {8de92a4d-34e9-4525-8726-cb47cbf2231b}, !- Source Object
  11,                                     !- Outlet Port
  {87ee9d5c-01ee-46c9-b530-ad08b381c3eb}, !- Target Object
  2;                                      !- Inlet Port

OS:PortList,
  {65ee208d-8622-411e-97f5-f93d64b6631a}, !- Handle
  {42e4c226-30c6-4e34-a1d6-9b8ce6c23f4e}, !- Name
  {8de92a4d-34e9-4525-8726-cb47cbf2231b}, !- HVAC Component
  {463feac2-2bf5-452c-9938-d7181ad57bb6}; !- Port 1

OS:PortList,
  {c2fe3126-3e30-45a0-a363-ddbf4cf6bfb5}, !- Handle
  {55a96c45-1641-424c-9d88-d8d71fa8e6d5}, !- Name
  {8de92a4d-34e9-4525-8726-cb47cbf2231b}; !- HVAC Component

OS:PortList,
  {22166ff4-67b5-4752-9a43-b185c1899b91}, !- Handle
  {a3b16fe7-7655-4273-85f7-207e071f416d}, !- Name
  {8de92a4d-34e9-4525-8726-cb47cbf2231b}, !- HVAC Component
  {49494d31-4061-4078-aff7-bfd277cdb7e0}; !- Port 1

OS:Sizing:Zone,
  {cf5734e0-2eb7-4259-a55e-31aaaac9f5aa}, !- Handle
  {8de92a4d-34e9-4525-8726-cb47cbf2231b}, !- Zone or ZoneList Name
  SupplyAirTemperature,                   !- Zone Cooling Design Supply Air Temperature Input Method
  14,                                     !- Zone Cooling Design Supply Air Temperature {C}
  11.11,                                  !- Zone Cooling Design Supply Air Temperature Difference {deltaC}
  SupplyAirTemperature,                   !- Zone Heating Design Supply Air Temperature Input Method
  40,                                     !- Zone Heating Design Supply Air Temperature {C}
  11.11,                                  !- Zone Heating Design Supply Air Temperature Difference {deltaC}
  0.0085,                                 !- Zone Cooling Design Supply Air Humidity Ratio {kg-H2O/kg-air}
  0.008,                                  !- Zone Heating Design Supply Air Humidity Ratio {kg-H2O/kg-air}
  ,                                       !- Zone Heating Sizing Factor
  ,                                       !- Zone Cooling Sizing Factor
  DesignDay,                              !- Cooling Design Air Flow Method
  ,                                       !- Cooling Design Air Flow Rate {m3/s}
  ,                                       !- Cooling Minimum Air Flow per Zone Floor Area {m3/s-m2}
  ,                                       !- Cooling Minimum Air Flow {m3/s}
  ,                                       !- Cooling Minimum Air Flow Fraction
  DesignDay,                              !- Heating Design Air Flow Method
  ,                                       !- Heating Design Air Flow Rate {m3/s}
  ,                                       !- Heating Maximum Air Flow per Zone Floor Area {m3/s-m2}
  ,                                       !- Heating Maximum Air Flow {m3/s}
  ,                                       !- Heating Maximum Air Flow Fraction
  ,                                       !- Design Zone Air Distribution Effectiveness in Cooling Mode
  ,                                       !- Design Zone Air Distribution Effectiveness in Heating Mode
  No,                                     !- Account for Dedicated Outdoor Air System
  NeutralSupplyAir,                       !- Dedicated Outdoor Air System Control Strategy
  autosize,                               !- Dedicated Outdoor Air Low Setpoint Temperature for Design {C}
  autosize;                               !- Dedicated Outdoor Air High Setpoint Temperature for Design {C}

OS:ZoneHVAC:EquipmentList,
  {5b85db07-5e98-4955-b61e-14849681b62c}, !- Handle
  Zone HVAC Equipment List 1,             !- Name
  {8de92a4d-34e9-4525-8726-cb47cbf2231b}, !- Thermal Zone
  ,                                       !- Load Distribution Scheme
  {1dad8b22-112a-4b53-af13-7811bdd2faad}, !- Zone Equipment 1
  1,                                      !- Zone Equipment Cooling Sequence 1
  1;                                      !- Zone Equipment Heating or No-Load Sequence 1

OS:ThermalZone,
  {a7aa6bd1-187f-4e6e-b583-0f70d5834c79}, !- Handle
  garage zone,                            !- Name
  ,                                       !- Multiplier
  ,                                       !- Ceiling Height {m}
  ,                                       !- Volume {m3}
  ,                                       !- Floor Area {m2}
  ,                                       !- Zone Inside Convection Algorithm
  ,                                       !- Zone Outside Convection Algorithm
  ,                                       !- Zone Conditioning Equipment List Name
  {e58ca78e-0856-4c1d-a6e0-0bbd31fd6ce4}, !- Zone Air Inlet Port List
  {5418b6ca-7133-4387-a853-f3d3d2cea1fa}, !- Zone Air Exhaust Port List
  {6adbb2c7-9116-4ae7-a0af-935a6c6db5b0}, !- Zone Air Node Name
  {ae06e5e5-aa93-41c7-b9e0-c2e081b3c5ad}, !- Zone Return Air Port List
  ,                                       !- Primary Daylighting Control Name
  ,                                       !- Fraction of Zone Controlled by Primary Daylighting Control
  ,                                       !- Secondary Daylighting Control Name
  ,                                       !- Fraction of Zone Controlled by Secondary Daylighting Control
  ,                                       !- Illuminance Map Name
  ,                                       !- Group Rendering Name
  ,                                       !- Thermostat Name
  No;                                     !- Use Ideal Air Loads

OS:Node,
  {36ee2931-b86f-45b8-9683-314052212aa9}, !- Handle
  Node 2,                                 !- Name
  {6adbb2c7-9116-4ae7-a0af-935a6c6db5b0}, !- Inlet Port
  ;                                       !- Outlet Port

OS:Connection,
  {6adbb2c7-9116-4ae7-a0af-935a6c6db5b0}, !- Handle
  {ead37525-94ca-40be-a462-a55a76d6f058}, !- Name
  {a7aa6bd1-187f-4e6e-b583-0f70d5834c79}, !- Source Object
  11,                                     !- Outlet Port
  {36ee2931-b86f-45b8-9683-314052212aa9}, !- Target Object
  2;                                      !- Inlet Port

OS:PortList,
  {e58ca78e-0856-4c1d-a6e0-0bbd31fd6ce4}, !- Handle
  {dd762987-58e8-47ed-9bef-9b9dedefd1c0}, !- Name
  {a7aa6bd1-187f-4e6e-b583-0f70d5834c79}; !- HVAC Component

OS:PortList,
  {5418b6ca-7133-4387-a853-f3d3d2cea1fa}, !- Handle
  {4e627e40-e0c0-43b3-b9fa-c0dfa4f6263e}, !- Name
  {a7aa6bd1-187f-4e6e-b583-0f70d5834c79}; !- HVAC Component

OS:PortList,
  {ae06e5e5-aa93-41c7-b9e0-c2e081b3c5ad}, !- Handle
  {1c635c46-4017-48aa-8b95-f76f4451f506}, !- Name
  {a7aa6bd1-187f-4e6e-b583-0f70d5834c79}; !- HVAC Component

OS:Sizing:Zone,
  {f7ea15d8-ed0a-494c-bb38-162cb1b235b8}, !- Handle
  {a7aa6bd1-187f-4e6e-b583-0f70d5834c79}, !- Zone or ZoneList Name
  SupplyAirTemperature,                   !- Zone Cooling Design Supply Air Temperature Input Method
  14,                                     !- Zone Cooling Design Supply Air Temperature {C}
  11.11,                                  !- Zone Cooling Design Supply Air Temperature Difference {deltaC}
  SupplyAirTemperature,                   !- Zone Heating Design Supply Air Temperature Input Method
  40,                                     !- Zone Heating Design Supply Air Temperature {C}
  11.11,                                  !- Zone Heating Design Supply Air Temperature Difference {deltaC}
  0.0085,                                 !- Zone Cooling Design Supply Air Humidity Ratio {kg-H2O/kg-air}
  0.008,                                  !- Zone Heating Design Supply Air Humidity Ratio {kg-H2O/kg-air}
  ,                                       !- Zone Heating Sizing Factor
  ,                                       !- Zone Cooling Sizing Factor
  DesignDay,                              !- Cooling Design Air Flow Method
  ,                                       !- Cooling Design Air Flow Rate {m3/s}
  ,                                       !- Cooling Minimum Air Flow per Zone Floor Area {m3/s-m2}
  ,                                       !- Cooling Minimum Air Flow {m3/s}
  ,                                       !- Cooling Minimum Air Flow Fraction
  DesignDay,                              !- Heating Design Air Flow Method
  ,                                       !- Heating Design Air Flow Rate {m3/s}
  ,                                       !- Heating Maximum Air Flow per Zone Floor Area {m3/s-m2}
  ,                                       !- Heating Maximum Air Flow {m3/s}
  ,                                       !- Heating Maximum Air Flow Fraction
  ,                                       !- Design Zone Air Distribution Effectiveness in Cooling Mode
  ,                                       !- Design Zone Air Distribution Effectiveness in Heating Mode
  No,                                     !- Account for Dedicated Outdoor Air System
  NeutralSupplyAir,                       !- Dedicated Outdoor Air System Control Strategy
  autosize,                               !- Dedicated Outdoor Air Low Setpoint Temperature for Design {C}
  autosize;                               !- Dedicated Outdoor Air High Setpoint Temperature for Design {C}

OS:ZoneHVAC:EquipmentList,
  {c85b981d-bf99-4581-9c8c-f2d6c8187eb1}, !- Handle
  Zone HVAC Equipment List 2,             !- Name
  {a7aa6bd1-187f-4e6e-b583-0f70d5834c79}; !- Thermal Zone

OS:Space,
  {a91ffacd-b3e3-4340-92e4-e3f2a688cf38}, !- Handle
  garage space,                           !- Name
  {54a10b54-1a61-4e43-a3cb-345634a1964c}, !- Space Type Name
  ,                                       !- Default Construction Set Name
  ,                                       !- Default Schedule Set Name
  -0,                                     !- Direction of Relative North {deg}
  0,                                      !- X Origin {m}
  0,                                      !- Y Origin {m}
  0,                                      !- Z Origin {m}
  ,                                       !- Building Story Name
  {a7aa6bd1-187f-4e6e-b583-0f70d5834c79}; !- Thermal Zone Name

OS:Surface,
  {0b2793c3-6e94-4500-bffe-95f8ca5d908f}, !- Handle
  Surface 1,                              !- Name
  Floor,                                  !- Surface Type
  {fb510adc-ee48-4c7e-82aa-5c49000ba7fb}, !- Construction Name
  {a91ffacd-b3e3-4340-92e4-e3f2a688cf38}, !- Space Name
  Foundation,                             !- Outside Boundary Condition
  {1651b86e-4707-4e0f-aa18-be4fcc472ee8}, !- Outside Boundary Condition Object
  NoSun,                                  !- Sun Exposure
  NoWind,                                 !- Wind Exposure
  ,                                       !- View Factor to Ground
  ,                                       !- Number of Vertices
  7.6199999993904, -3.048, 0,             !- X,Y,Z Vertex 1 {m}
  7.6199999993904, 3.048, 0,              !- X,Y,Z Vertex 2 {m}
  11.2775999993904, 3.048, 0,             !- X,Y,Z Vertex 3 {m}
  11.2775999993904, -3.048, 0;            !- X,Y,Z Vertex 4 {m}

OS:Surface,
  {a6eddf95-cce1-4ac8-b369-f4b8b21e8721}, !- Handle
  Surface 2,                              !- Name
  Wall,                                   !- Surface Type
  {3a39e0b5-f784-45ae-9cae-33618bac6acf}, !- Construction Name
  {a91ffacd-b3e3-4340-92e4-e3f2a688cf38}, !- Space Name
  Surface,                                !- Outside Boundary Condition
  {b473a99f-cd7a-42e7-9261-8959999e7b33}, !- Outside Boundary Condition Object
  NoSun,                                  !- Sun Exposure
  NoWind,                                 !- Wind Exposure
  ,                                       !- View Factor to Ground
  ,                                       !- Number of Vertices
  7.6199999993904, 3.048, 2.4384,         !- X,Y,Z Vertex 1 {m}
  7.6199999993904, 3.048, 0,              !- X,Y,Z Vertex 2 {m}
  7.6199999993904, 0, 0,                  !- X,Y,Z Vertex 3 {m}
  7.6199999993904, 0, 2.4384;             !- X,Y,Z Vertex 4 {m}

OS:Surface,
  {4f6ec35e-6923-4eae-9737-27c76e589263}, !- Handle
  Surface 3,                              !- Name
  Wall,                                   !- Surface Type
  {3a39e0b5-f784-45ae-9cae-33618bac6acf}, !- Construction Name
  {a91ffacd-b3e3-4340-92e4-e3f2a688cf38}, !- Space Name
  Surface,                                !- Outside Boundary Condition
  {ac5b5c61-7471-48df-a7d1-f54bd38bc33c}, !- Outside Boundary Condition Object