!- NOTE: Auto-generated from /test/osw_files/SFD_HVACSizing_Equip_Dehumidifier_Auto_Atlanta.osw

OS:Version,
  {435c4dba-07ff-44c7-8c8e-e002ea096605}, !- Handle
  2.6.0;                                  !- Version Identifier

OS:Building,
  {30f99781-ff22-475c-9910-d8530cec1108}, !- Handle
  Building 1,                             !- Name
  ,                                       !- Building Sector Type
  22.5,                                   !- North Axis {deg}
  ,                                       !- Nominal Floor to Floor Height {m}
  ,                                       !- Space Type Name
  ,                                       !- Default Construction Set Name
  ,                                       !- Default Schedule Set Name
  4,                                      !- Standards Number of Stories
  3,                                      !- Standards Number of Above Ground Stories
  singlefamilydetached,                   !- Standards Building Type
  1;                                      !- Standards Number of Living Units

OS:Facility,
  {4227d12d-705d-4d02-9aa4-19eb60de51f7}; !- Handle

OS:Site,
  {5a26fb0c-bac4-459e-bbfd-c5f09533b91b}, !- Handle
  Atlanta Hartsfield Intl Ap_GA_USA,      !- Name
  33.63,                                  !- Latitude {deg}
  -84.43,                                 !- Longitude {deg}
  -5,                                     !- Time Zone {hr}
  308,                                    !- Elevation {m}
  Suburbs;                                !- Terrain

OS:SimulationControl,
  {dab4b39e-6953-41ba-a51e-fd9c41315b21}, !- Handle
  ,                                       !- Do Zone Sizing Calculation
  ,                                       !- Do System Sizing Calculation
  ,                                       !- Do Plant Sizing Calculation
  No;                                     !- Run Simulation for Sizing Periods

OS:Sizing:Parameters,
  {02ff3c49-e119-45ab-a68d-be3e50b2a835}, !- Handle
  1.25,                                   !- Heating Sizing Factor
  1.15;                                   !- Cooling Sizing Factor

OS:Timestep,
  {47659f3b-5ddc-4c6f-b3c2-d91023c89231}, !- Handle
  6;                                      !- Number of Timesteps per Hour

OS:ShadowCalculation,
  {0c66c880-7e31-4060-82b6-079fcc5edc15}, !- Handle
  20,                                     !- Calculation Frequency
  200;                                    !- Maximum Figures in Shadow Overlap Calculations

OS:HeatBalanceAlgorithm,
  {35fe2b7c-0070-4c7e-8507-a4deadef6704}, !- Handle
  ConductionTransferFunction,             !- Algorithm
  200;                                    !- Surface Temperature Upper Limit {C}

OS:RunPeriod,
  {cd5ad839-d4a5-4aa8-83f5-92b3c5c85dea}, !- Handle
  Run Period 1,                           !- Name
  1,                                      !- Begin Month
  1,                                      !- Begin Day of Month
  12,                                     !- End Month
  31,                                     !- End Day of Month
  ,                                       !- Use Weather File Holidays and Special Days
  ,                                       !- Use Weather File Daylight Saving Period
  ,                                       !- Apply Weekend Holiday Rule
  ,                                       !- Use Weather File Rain Indicators
  ,                                       !- Use Weather File Snow Indicators
  ;                                       !- Number of Times Runperiod to be Repeated

OS:LifeCycleCost:Parameters,
  {552dc20f-bdad-4660-ad07-171c90cb1c70}, !- Handle
  ,                                       !- Analysis Type
  ,                                       !- Discounting Convention
  ,                                       !- Inflation Approach
  ,                                       !- Real Discount Rate
  ,                                       !- Nominal Discount Rate
  ,                                       !- Inflation
  ,                                       !- Base Date Month
  ,                                       !- Base Date Year
  ,                                       !- Service Date Month
  ,                                       !- Service Date Year
  ;                                       !- Length of Study Period in Years

OS:SurfaceConvectionAlgorithm:Outside,
  {fb4773d9-2ab2-4499-b3fc-d8720d7375a7}, !- Handle
  DOE-2;                                  !- Algorithm

OS:SurfaceConvectionAlgorithm:Inside,
  {0d6cd39d-7b7c-44a2-ab75-c46eaa5e11ef}, !- Handle
  TARP;                                   !- Algorithm

OS:ZoneCapacitanceMultiplier:ResearchSpecial,
  {2a1cefee-8b0e-48f8-88a2-6301351cfd66}, !- Handle
  ,                                       !- Temperature Capacity Multiplier
  15,                                     !- Humidity Capacity Multiplier
  ;                                       !- Carbon Dioxide Capacity Multiplier

OS:WeatherFile,
  {7cc431f9-c469-4feb-a496-6f70315b955e}, !- Handle
  Atlanta Hartsfield Intl Ap,             !- City
  GA,                                     !- State Province Region
  USA,                                    !- Country
  TMY3,                                   !- Data Source
  722190,                                 !- WMO Number
  33.63,                                  !- Latitude {deg}
  -84.43,                                 !- Longitude {deg}
  -5,                                     !- Time Zone {hr}
  308,                                    !- Elevation {m}
  file:../tests/USA_GA_Atlanta-Hartsfield-Jackson.Intl.AP.722190_TMY3.epw, !- Url
  F0AA8FA7;                               !- Checksum

OS:BuildingUnit,
  {248fa56e-6b51-46b0-9483-62723b8f3f78}, !- Handle
  EPWWeatherInfo,                         !- Name
  ,                                       !- Rendering Color
  Residential;                            !- Building Unit Type

OS:AdditionalProperties,
  {24f3ec89-c24d-4beb-b8bf-2293ff253e69}, !- Handle
  {248fa56e-6b51-46b0-9483-62723b8f3f78}, !- Object Name
  EPWHeaderCity,                          !- Feature Name 1
  String,                                 !- Feature Data Type 1
  Atlanta Hartsfield Intl Ap,             !- Feature Value 1
  EPWHeaderState,                         !- Feature Name 2
  String,                                 !- Feature Data Type 2
  GA,                                     !- Feature Value 2
  EPWHeaderCountry,                       !- Feature Name 3
  String,                                 !- Feature Data Type 3
  USA,                                    !- Feature Value 3
  EPWHeaderDataSource,                    !- Feature Name 4
  String,                                 !- Feature Data Type 4
  TMY3,                                   !- Feature Value 4
  EPWHeaderStation,                       !- Feature Name 5
  String,                                 !- Feature Data Type 5
  722190,                                 !- Feature Value 5
  EPWHeaderLatitude,                      !- Feature Name 6
  Double,                                 !- Feature Data Type 6
  33.630000000000003,                     !- Feature Value 6
  EPWHeaderLongitude,                     !- Feature Name 7
  Double,                                 !- Feature Data Type 7
  -84.430000000000007,                    !- Feature Value 7
  EPWHeaderTimezone,                      !- Feature Name 8
  Double,                                 !- Feature Data Type 8
  -5,                                     !- Feature Value 8
  EPWHeaderAltitude,                      !- Feature Name 9
  Double,                                 !- Feature Data Type 9
  1010.498687664042,                      !- Feature Value 9
  EPWHeaderLocalPressure,                 !- Feature Name 10
  Double,                                 !- Feature Data Type 10
  0.96349656938889539,                    !- Feature Value 10
  EPWDataAnnualAvgDrybulb,                !- Feature Name 11
  Double,                                 !- Feature Data Type 11
  61.975219178082227,                     !- Feature Value 11
  EPWDataAnnualMinDrybulb,                !- Feature Name 12
  Double,                                 !- Feature Data Type 12
  8.9599999999999973,                     !- Feature Value 12
  EPWDataAnnualMaxDrybulb,                !- Feature Name 13
  Double,                                 !- Feature Data Type 13
  98.060000000000002,                     !- Feature Value 13
  EPWDataCDD50F,                          !- Feature Name 14
  Double,                                 !- Feature Data Type 14
  5167.4549999999999,                     !- Feature Value 14
  EPWDataCDD65F,                          !- Feature Name 15
  Double,                                 !- Feature Data Type 15
  1722.3449999999996,                     !- Feature Value 15
  EPWDataHDD50F,                          !- Feature Name 16
  Double,                                 !- Feature Data Type 16
  796.49999999999966,                     !- Feature Value 16
  EPWDataHDD65F,                          !- Feature Name 17
  Double,                                 !- Feature Data Type 17
  2826.3900000000008,                     !- Feature Value 17
  EPWDataAnnualAvgWindspeed,              !- Feature Name 18
  Double,                                 !- Feature Data Type 18
  4.0382762557073244,                     !- Feature Value 18
  EPWDataMonthlyAvgDrybulbs,              !- Feature Name 19
  String,                                 !- Feature Data Type 19
  39.14217741935483&#4446.29312500000001&#4456.77129032258064&#4462.98849999999998&#4469.51064516129031&#4476.63525000000004&#4478.91685483870964&#4479.78104838709672&#4472.54099999999995&#4460.83895161290323&#4453.48324999999999&#4445.85540322580647, !- Feature Value 19
  EPWDataGroundMonthlyTemps,              !- Feature Name 20
  String,                                 !- Feature Data Type 20
  54.677026693263485&#4451.56886666200381&#4451.319954060175576&#4452.794934810798&#4458.716160600660885&#4464.60980280887844&#4469.7192756221221&#4472.95600098438916&#4473.23097858198247&#4470.59844651906309&#4465.61926826240398&#4459.90641899190797, !- Feature Value 20
  EPWDataWSF,                             !- Feature Name 21
  Double,                                 !- Feature Data Type 21
  0.46000000000000002,                    !- Feature Value 21
  EPWDataMonthlyAvgDailyHighDrybulbs,     !- Feature Name 22
  String,                                 !- Feature Data Type 22
  47.23032258064516&#4457.83642857142857&#4466.85032258064516&#4474.78&#4480.28064516129032&#4488.19600000000001&#4489.07741935483871&#4489.20516129032258&#4481.518&#4471.15870967741935&#4465.69&#4455.800645161290326, !- Feature Value 22
  EPWDataMonthlyAvgDailyLowDrybulbs,      !- Feature Name 23
  String,                                 !- Feature Data Type 23
  31.065161290322582&#4435.863571428571426&#4446.69032258064516&#4451.236000000000004&#4459.22064516129032&#4465.924&#4469.73612903225808&#4472.19806451612905&#4464.46600000000001&#4450.88258064516128&#4442.818&#4437.09806451612903, !- Feature Value 23
  EPWDesignHeatingDrybulb,                !- Feature Name 24
  Double,                                 !- Feature Data Type 24
  25.699999999999999,                     !- Feature Value 24
  EPWDesignHeatingWindspeed,              !- Feature Name 25
  Double,                                 !- Feature Data Type 25
  10.699999999999999,                     !- Feature Value 25
  EPWDesignCoolingDrybulb,                !- Feature Name 26
  Double,                                 !- Feature Data Type 26
  91.400000000000006,                     !- Feature Value 26
  EPWDesignCoolingWetbulb,                !- Feature Name 27
  Double,                                 !- Feature Data Type 27
  73.939999999999998,                     !- Feature Value 27
  EPWDesignCoolingHumidityRatio,          !- Feature Name 28
  Double,                                 !- Feature Data Type 28
  0.014532714185157248,                   !- Feature Value 28
  EPWDesignCoolingWindspeed,              !- Feature Name 29
  Double,                                 !- Feature Data Type 29
  4,                                      !- Feature Value 29
  EPWDesignDailyTemperatureRange,         !- Feature Name 30
  Double,                                 !- Feature Data Type 30
  17.100000000000001,                     !- Feature Value 30
  EPWDesignDehumidDrybulb,                !- Feature Name 31
  Double,                                 !- Feature Data Type 31
  79.340000000000003,                     !- Feature Value 31
  EPWDesignDehumidHumidityRatio,          !- Feature Name 32
  Double,                                 !- Feature Data Type 32
  0.017860837341798077,                   !- Feature Value 32
  EPWDesignCoolingDirectNormal,           !- Feature Name 33
  Double,                                 !- Feature Data Type 33
  908,                                    !- Feature Value 33
  EPWDesignCoolingDiffuseHorizontal,      !- Feature Name 34
  Double,                                 !- Feature Data Type 34
  120;                                    !- Feature Value 34

OS:YearDescription,
  {e8a07cb6-f5c3-4ffa-b966-4fecc6b17a6d}, !- Handle
  ,                                       !- Calendar Year
  Monday;                                 !- Day of Week for Start Day

OS:ClimateZones,
  {f4d39c90-499e-4cce-b40c-97d27ca86c60}, !- Handle
  ,                                       !- Active Institution
  ,                                       !- Active Year
  ,                                       !- Climate Zone Institution Name 1
  ,                                       !- Climate Zone Document Name 1
  ,                                       !- Climate Zone Document Year 1
  ,                                       !- Climate Zone Value 1
  Building America,                       !- Climate Zone Institution Name 2
  ,                                       !- Climate Zone Document Name 2
  0,                                      !- Climate Zone Document Year 2
  Mixed-Humid;                            !- Climate Zone Value 2

OS:Site:WaterMainsTemperature,
  {99227651-6bbc-4f7b-879a-1f97ae2941bd}, !- Handle
  Correlation,                            !- Calculation Method
  ,                                       !- Temperature Schedule Name
  16.652899543379,                        !- Annual Average Outdoor Air Temperature {C}
  22.5771505376344;                       !- Maximum Difference In Monthly Average Outdoor Air Temperatures {deltaC}

OS:RunPeriodControl:DaylightSavingTime,
  {d13e98ff-88e2-4729-8161-3e2e76a943fe}, !- Handle
  4/7,                                    !- Start Date
  10/26;                                  !- End Date

OS:Site:GroundTemperature:Deep,
  {ea152f10-d95f-4235-865e-ebd2db578293}, !- Handle
  16.652899543379,                        !- January Deep Ground Temperature {C}
  16.652899543379,                        !- February Deep Ground Temperature {C}
  16.652899543379,                        !- March Deep Ground Temperature {C}
  16.652899543379,                        !- April Deep Ground Temperature {C}
  16.652899543379,                        !- May Deep Ground Temperature {C}
  16.652899543379,                        !- June Deep Ground Temperature {C}
  16.652899543379,                        !- July Deep Ground Temperature {C}
  16.652899543379,                        !- August Deep Ground Temperature {C}
  16.652899543379,                        !- September Deep Ground Temperature {C}
  16.652899543379,                        !- October Deep Ground Temperature {C}
  16.652899543379,                        !- November Deep Ground Temperature {C}
  16.652899543379;                        !- December Deep Ground Temperature {C}

OS:ThermalZone,
  {c0bc42e2-1806-4a80-abdc-d5a8471aed34}, !- Handle
  living zone,                            !- Name
  ,                                       !- Multiplier
  ,                                       !- Ceiling Height {m}
  ,                                       !- Volume {m3}
  ,                                       !- Floor Area {m2}
  ,                                       !- Zone Inside Convection Algorithm
  ,                                       !- Zone Outside Convection Algorithm
  ,                                       !- Zone Conditioning Equipment List Name
  {3820646c-655a-4182-9e81-458035b21b51}, !- Zone Air Inlet Port List
  {71528ab7-fb85-47f5-8e99-bc33488ace2f}, !- Zone Air Exhaust Port List
  {ba29f88b-af49-4a2b-ba48-78cc07596ca1}, !- Zone Air Node Name
  ,                                       !- Zone Return Air Node Name
  ,                                       !- Primary Daylighting Control Name
  ,                                       !- Fraction of Zone Controlled by Primary Daylighting Control
  ,                                       !- Secondary Daylighting Control Name
  ,                                       !- Fraction of Zone Controlled by Secondary Daylighting Control
  ,                                       !- Illuminance Map Name
  ,                                       !- Group Rendering Name
  ,                                       !- Thermostat Name
  No,                                     !- Use Ideal Air Loads
  {16d0b4df-e2b3-48a8-9cd7-bb601da7ddb1}; !- Humidistat Name

OS:Node,
  {41d4e719-99a8-4cb3-90d3-dd83df8ab676}, !- Handle
  Node 1,                                 !- Name
  {ba29f88b-af49-4a2b-ba48-78cc07596ca1}, !- Inlet Port
  ;                                       !- Outlet Port

OS:Connection,
  {ba29f88b-af49-4a2b-ba48-78cc07596ca1}, !- Handle
  {b7b93ca3-e87e-46d7-b6da-7ffbe8842374}, !- Name
  {c0bc42e2-1806-4a80-abdc-d5a8471aed34}, !- Source Object
  11,                                     !- Outlet Port
  {41d4e719-99a8-4cb3-90d3-dd83df8ab676}, !- Target Object
  2;                                      !- Inlet Port

OS:PortList,
  {3820646c-655a-4182-9e81-458035b21b51}, !- Handle
  {6559d64b-0ade-44fa-af00-950910861f52}, !- Name
  {c0bc42e2-1806-4a80-abdc-d5a8471aed34}, !- HVAC Component
  {e1348207-0e9e-46e3-84be-159f9d8b5950}; !- Port 1

OS:PortList,
  {71528ab7-fb85-47f5-8e99-bc33488ace2f}, !- Handle
  {cfd0a151-7590-4221-abe5-3ce177681bc4}, !- Name
  {c0bc42e2-1806-4a80-abdc-d5a8471aed34}, !- HVAC Component
  {f62379d2-4d82-4c96-bb46-16cddcd47055}; !- Port 1

OS:Sizing:Zone,
  {e545b0d9-6528-491e-b942-f75dae12155b}, !- Handle
  {c0bc42e2-1806-4a80-abdc-d5a8471aed34}, !- Zone or ZoneList Name
  SupplyAirTemperature,                   !- Zone Cooling Design Supply Air Temperature Input Method
  14,                                     !- Zone Cooling Design Supply Air Temperature {C}
  11.11,                                  !- Zone Cooling Design Supply Air Temperature Difference {deltaC}
  SupplyAirTemperature,                   !- Zone Heating Design Supply Air Temperature Input Method
  40,                                     !- Zone Heating Design Supply Air Temperature {C}
  11.11,                                  !- Zone Heating Design Supply Air Temperature Difference {deltaC}
  0.0085,                                 !- Zone Cooling Design Supply Air Humidity Ratio {kg-H2O/kg-air}
  0.008,                                  !- Zone Heating Design Supply Air Humidity Ratio {kg-H2O/kg-air}
  ,                                       !- Zone Heating Sizing Factor
  ,                                       !- Zone Cooling Sizing Factor
  DesignDay,                              !- Cooling Design Air Flow Method
  ,                                       !- Cooling Design Air Flow Rate {m3/s}
  ,                                       !- Cooling Minimum Air Flow per Zone Floor Area {m3/s-m2}
  ,                                       !- Cooling Minimum Air Flow {m3/s}
  ,                                       !- Cooling Minimum Air Flow Fraction
  DesignDay,                              !- Heating Design Air Flow Method
  ,                                       !- Heating Design Air Flow Rate {m3/s}
  ,                                       !- Heating Maximum Air Flow per Zone Floor Area {m3/s-m2}
  ,                                       !- Heating Maximum Air Flow {m3/s}
  ,                                       !- Heating Maximum Air Flow Fraction
  ,                                       !- Design Zone Air Distribution Effectiveness in Cooling Mode
  ,                                       !- Design Zone Air Distribution Effectiveness in Heating Mode
  No,                                     !- Account for Dedicated Outdoor Air System
  NeutralSupplyAir,                       !- Dedicated Outdoor Air System Control Strategy
  autosize,                               !- Dedicated Outdoor Air Low Setpoint Temperature for Design {C}
  autosize;                               !- Dedicated Outdoor Air High Setpoint Temperature for Design {C}

OS:ZoneHVAC:EquipmentList,
  {5d85966b-db7e-4e5d-b3c4-eb23c80c78de}, !- Handle
  Zone HVAC Equipment List 1,             !- Name
  {c0bc42e2-1806-4a80-abdc-d5a8471aed34}, !- Thermal Zone
  {7da90ced-c06b-445d-9c34-8d04d8686c1e}, !- Zone Equipment 1
  1,                                      !- Zone Equipment Cooling Sequence 1
  1;                                      !- Zone Equipment Heating or No-Load Sequence 1

OS:ThermalZone,
  {b63e0957-b409-4298-81be-a4f860ad3372}, !- Handle
  garage zone,                            !- Name
  ,                                       !- Multiplier
  ,                                       !- Ceiling Height {m}
  ,                                       !- Volume {m3}
  ,                                       !- Floor Area {m2}
  ,                                       !- Zone Inside Convection Algorithm
  ,                                       !- Zone Outside Convection Algorithm
  ,                                       !- Zone Conditioning Equipment List Name
  {a2692ad2-ba13-40e2-b038-d859480dbd44}, !- Zone Air Inlet Port List
  {dc87a2dd-012d-49fc-ba50-5b9381f83666}, !- Zone Air Exhaust Port List
  {2d209adb-c7c4-45cd-95eb-9afc2f886d2b}, !- Zone Air Node Name
  ,                                       !- Zone Return Air Node Name
  ,                                       !- Primary Daylighting Control Name
  ,                                       !- Fraction of Zone Controlled by Primary Daylighting Control
  ,                                       !- Secondary Daylighting Control Name
  ,                                       !- Fraction of Zone Controlled by Secondary Daylighting Control
  ,                                       !- Illuminance Map Name
  ,                                       !- Group Rendering Name
  ,                                       !- Thermostat Name
  No;                                     !- Use Ideal Air Loads

OS:Node,
  {8aab29c9-25f5-4847-b2c7-efa2c0e31fa0}, !- Handle
  Node 2,                                 !- Name
  {2d209adb-c7c4-45cd-95eb-9afc2f886d2b}, !- Inlet Port
  ;                                       !- Outlet Port

OS:Connection,
  {2d209adb-c7c4-45cd-95eb-9afc2f886d2b}, !- Handle
  {7594567a-0b72-431d-815e-8d26d768d7ff}, !- Name
  {b63e0957-b409-4298-81be-a4f860ad3372}, !- Source Object
  11,                                     !- Outlet Port
  {8aab29c9-25f5-4847-b2c7-efa2c0e31fa0}, !- Target Object
  2;                                      !- Inlet Port

OS:PortList,
  {a2692ad2-ba13-40e2-b038-d859480dbd44}, !- Handle
  {b99a3359-7941-4c53-87d3-bc908835a2b6}, !- Name
  {b63e0957-b409-4298-81be-a4f860ad3372}; !- HVAC Component

OS:PortList,
  {dc87a2dd-012d-49fc-ba50-5b9381f83666}, !- Handle
  {fcc15852-1cb7-418c-8e75-d1017865b715}, !- Name
  {b63e0957-b409-4298-81be-a4f860ad3372}; !- HVAC Component

OS:Sizing:Zone,
  {c6b6287d-98e2-4e2d-a7dd-c69c30945d84}, !- Handle
  {b63e0957-b409-4298-81be-a4f860ad3372}, !- Zone or ZoneList Name
  SupplyAirTemperature,                   !- Zone Cooling Design Supply Air Temperature Input Method
  14,                                     !- Zone Cooling Design Supply Air Temperature {C}
  11.11,                                  !- Zone Cooling Design Supply Air Temperature Difference {deltaC}
  SupplyAirTemperature,                   !- Zone Heating Design Supply Air Temperature Input Method
  40,                                     !- Zone Heating Design Supply Air Temperature {C}
  11.11,                                  !- Zone Heating Design Supply Air Temperature Difference {deltaC}
  0.0085,                                 !- Zone Cooling Design Supply Air Humidity Ratio {kg-H2O/kg-air}
  0.008,                                  !- Zone Heating Design Supply Air Humidity Ratio {kg-H2O/kg-air}
  ,                                       !- Zone Heating Sizing Factor
  ,                                       !- Zone Cooling Sizing Factor
  DesignDay,                              !- Cooling Design Air Flow Method
  ,                                       !- Cooling Design Air Flow Rate {m3/s}
  ,                                       !- Cooling Minimum Air Flow per Zone Floor Area {m3/s-m2}
  ,                                       !- Cooling Minimum Air Flow {m3/s}
  ,                                       !- Cooling Minimum Air Flow Fraction
  DesignDay,                              !- Heating Design Air Flow Method
  ,                                       !- Heating Design Air Flow Rate {m3/s}
  ,                                       !- Heating Maximum Air Flow per Zone Floor Area {m3/s-m2}
  ,                                       !- Heating Maximum Air Flow {m3/s}
  ,                                       !- Heating Maximum Air Flow Fraction
  ,                                       !- Design Zone Air Distribution Effectiveness in Cooling Mode
  ,                                       !- Design Zone Air Distribution Effectiveness in Heating Mode
  No,                                     !- Account for Dedicated Outdoor Air System
  NeutralSupplyAir,                       !- Dedicated Outdoor Air System Control Strategy
  autosize,                               !- Dedicated Outdoor Air Low Setpoint Temperature for Design {C}
  autosize;                               !- Dedicated Outdoor Air High Setpoint Temperature for Design {C}

OS:ZoneHVAC:EquipmentList,
  {dbfbe1a3-c93a-4e83-ad86-9db21f079468}, !- Handle
  Zone HVAC Equipment List 2,             !- Name
  {b63e0957-b409-4298-81be-a4f860ad3372}; !- Thermal Zone

OS:Space,
  {bd1bf194-4b0a-4f11-bc1d-ee09d541c3e3}, !- Handle
  garage space,                           !- Name
  {c08fa32c-7947-4ea0-8bcd-e6d010fd9ec4}, !- Space Type Name
  ,                                       !- Default Construction Set Name
  ,                                       !- Default Schedule Set Name
  -0,                                     !- Direction of Relative North {deg}
  0,                                      !- X Origin {m}
  0,                                      !- Y Origin {m}
  0,                                      !- Z Origin {m}
  ,                                       !- Building Story Name
  {b63e0957-b409-4298-81be-a4f860ad3372}; !- Thermal Zone Name

OS:Surface,
  {caea4663-702d-4ff1-b1af-9f34361b37c6}, !- Handle
  Surface 1,                              !- Name
  Floor,                                  !- Surface Type
  {8a859dcb-2baf-4eae-a7bc-9fb54f96774f}, !- Construction Name
  {bd1bf194-4b0a-4f11-bc1d-ee09d541c3e3}, !- Space Name
  Foundation,                             !- Outside Boundary Condition
  {0738be91-ea6c-43f2-af9f-39ff22bf83a1}, !- Outside Boundary Condition Object
  NoSun,                                  !- Sun Exposure
  NoWind,                                 !- Wind Exposure
  ,                                       !- View Factor to Ground
  ,                                       !- Number of Vertices
  7.6199999993904, -3.048, 0,             !- X,Y,Z Vertex 1 {m}
  7.6199999993904, 3.048, 0,              !- X,Y,Z Vertex 2 {m}
  11.2775999993904, 3.048, 0,             !- X,Y,Z Vertex 3 {m}
  11.2775999993904, -3.048, 0;            !- X,Y,Z Vertex 4 {m}

OS:Surface,
  {d43f7c3f-cfa3-4a33-9e3c-100ed006b501}, !- Handle
  Surface 2,                              !- Name
  Wall,                                   !- Surface Type
  {e2a1b2a1-9c5d-4377-b71c-0c1bd00d4f39}, !- Construction Name
  {bd1bf194-4b0a-4f11-bc1d-ee09d541c3e3}, !- Space Name
  Surface,                                !- Outside Boundary Condition
  {1b88b6e4-fa1e-441a-bc2b-63310cadd8e5}, !- Outside Boundary Condition Object
  NoSun,                                  !- Sun Exposure
  NoWind,                                 !- Wind Exposure
  ,                                       !- View Factor to Ground
  ,                                       !- Number of Vertices
  7.6199999993904, 3.048, 2.4384,         !- X,Y,Z Vertex 1 {m}
  7.6199999993904, 3.048, 0,              !- X,Y,Z Vertex 2 {m}
  7.6199999993904, 0, 0,                  !- X,Y,Z Vertex 3 {m}
  7.6199999993904, 0, 2.4384;             !- X,Y,Z Vertex 4 {m}

OS:Surface,
  {ea5b858f-56b4-4050-bca5-1aa6ffd64cc9}, !- Handle
  Surface 3,                              !- Name
  Wall,                                   !- Surface Type
  {e2a1b2a1-9c5d-4377-b71c-0c1bd00d4f39}, !- Construction Name
  {bd1bf194-4b0a-4f11-bc1d-ee09d541c3e3}, !- Space Name
  Surface,                                !- Outside Boundary Condition
  {93407ecf-95ae-49e1-9e81-c3f8341e8b09}, !- Outside Boundary Condition Object
  NoSun,                                  !- Sun Exposure
  NoWind,                                 !- Wind Exposure
  ,                                       !- View Factor to Ground
  ,                                       !- Number of Vertices
  11.2775999993904, 3.048, 2.4384,        !- X,Y,Z Vertex 1 {m}
  11.2775999993904, 3.048, 0,             !- X,Y,Z Vertex 2 {m}