!- NOTE: Auto-generated from /test/osw_files/SFD_HVACSizing_Equip_MSHP_BB_Fixed.osw

OS:Version,
  {abdc7550-1ec4-4731-a3f5-fa77a101b6f6}, !- Handle
  2.6.2;                                  !- Version Identifier

OS:Building,
  {07252fdc-41b3-40f6-9ce2-ec93c58beb54}, !- Handle
  Building 1,                             !- Name
  ,                                       !- Building Sector Type
  22.5,                                   !- North Axis {deg}
  ,                                       !- Nominal Floor to Floor Height {m}
  ,                                       !- Space Type Name
  ,                                       !- Default Construction Set Name
  ,                                       !- Default Schedule Set Name
  4,                                      !- Standards Number of Stories
  3,                                      !- Standards Number of Above Ground Stories
  singlefamilydetached,                   !- Standards Building Type
  1;                                      !- Standards Number of Living Units

OS:Facility,
  {913187a0-802b-45b8-a913-b469444590c9}; !- Handle

OS:Site,
  {6becc34d-c10f-4e05-996d-3d1e665b2e82}, !- Handle
  Denver Intl Ap_CO_USA,                  !- Name
  39.83,                                  !- Latitude {deg}
  -104.65,                                !- Longitude {deg}
  -7,                                     !- Time Zone {hr}
  1650,                                   !- Elevation {m}
  Suburbs;                                !- Terrain

OS:SimulationControl,
  {ec3456e6-24e0-4322-9636-542fa40d2f75}, !- Handle
  ,                                       !- Do Zone Sizing Calculation
  ,                                       !- Do System Sizing Calculation
  ,                                       !- Do Plant Sizing Calculation
  No;                                     !- Run Simulation for Sizing Periods

OS:Sizing:Parameters,
  {c1e90311-5c3f-4fd7-84c9-42b58f7923d2}, !- Handle
  1.25,                                   !- Heating Sizing Factor
  1.15;                                   !- Cooling Sizing Factor

OS:Timestep,
  {317083fa-afe4-4bb5-878f-79b8f4ba2b99}, !- Handle
  6;                                      !- Number of Timesteps per Hour

OS:ShadowCalculation,
  {9ba0ab68-8fbb-4d46-abb6-e0eb28b4a833}, !- Handle
  20,                                     !- Calculation Frequency
  200;                                    !- Maximum Figures in Shadow Overlap Calculations

OS:HeatBalanceAlgorithm,
  {6882c7a3-ec31-4bed-abf1-8bae924b6024}, !- Handle
  ConductionTransferFunction,             !- Algorithm
  200;                                    !- Surface Temperature Upper Limit {C}

OS:RunPeriod,
  {7e326b0a-648f-4c79-9e8e-d3936a833594}, !- Handle
  Run Period 1,                           !- Name
  1,                                      !- Begin Month
  1,                                      !- Begin Day of Month
  12,                                     !- End Month
  31,                                     !- End Day of Month
  ,                                       !- Use Weather File Holidays and Special Days
  ,                                       !- Use Weather File Daylight Saving Period
  ,                                       !- Apply Weekend Holiday Rule
  ,                                       !- Use Weather File Rain Indicators
  ,                                       !- Use Weather File Snow Indicators
  ;                                       !- Number of Times Runperiod to be Repeated

OS:LifeCycleCost:Parameters,
  {e80037cf-e160-4678-a438-78920b084fbe}, !- Handle
  ,                                       !- Analysis Type
  ,                                       !- Discounting Convention
  ,                                       !- Inflation Approach
  ,                                       !- Real Discount Rate
  ,                                       !- Nominal Discount Rate
  ,                                       !- Inflation
  ,                                       !- Base Date Month
  ,                                       !- Base Date Year
  ,                                       !- Service Date Month
  ,                                       !- Service Date Year
  ;                                       !- Length of Study Period in Years

OS:SurfaceConvectionAlgorithm:Outside,
  {9a786b96-6052-4463-a8c6-d33378671253}, !- Handle
  DOE-2;                                  !- Algorithm

OS:SurfaceConvectionAlgorithm:Inside,
  {8e8dc012-1a26-4e97-a3a1-77f99095427a}, !- Handle
  TARP;                                   !- Algorithm

OS:ZoneCapacitanceMultiplier:ResearchSpecial,
  {1f115f20-d3f3-4da2-8cd2-396cde2b42cf}, !- Handle
  ,                                       !- Temperature Capacity Multiplier
  15,                                     !- Humidity Capacity Multiplier
  ;                                       !- Carbon Dioxide Capacity Multiplier

OS:WeatherFile,
  {e86935cf-d78f-417b-a005-76fd48e981fd}, !- Handle
  Denver Intl Ap,                         !- City
  CO,                                     !- State Province Region
  USA,                                    !- Country
  TMY3,                                   !- Data Source
  725650,                                 !- WMO Number
  39.83,                                  !- Latitude {deg}
  -104.65,                                !- Longitude {deg}
  -7,                                     !- Time Zone {hr}
  1650,                                   !- Elevation {m}
  file:../tests/USA_CO_Denver_Intl_AP_725650_TMY3.epw, !- Url
  E23378AA;                               !- Checksum

OS:BuildingUnit,
  {3af8eae7-03cb-4611-b0fe-2db7cdb9bfb1}, !- Handle
  EPWWeatherInfo,                         !- Name
  ,                                       !- Rendering Color
  Residential;                            !- Building Unit Type

OS:AdditionalProperties,
  {7a1ed1fc-ec34-4273-8ca9-d9622d5cf085}, !- Handle
  {3af8eae7-03cb-4611-b0fe-2db7cdb9bfb1}, !- Object Name
  EPWHeaderCity,                          !- Feature Name 1
  String,                                 !- Feature Data Type 1
  Denver Intl Ap,                         !- Feature Value 1
  EPWHeaderState,                         !- Feature Name 2
  String,                                 !- Feature Data Type 2
  CO,                                     !- Feature Value 2
  EPWHeaderCountry,                       !- Feature Name 3
  String,                                 !- Feature Data Type 3
  USA,                                    !- Feature Value 3
  EPWHeaderDataSource,                    !- Feature Name 4
  String,                                 !- Feature Data Type 4
  TMY3,                                   !- Feature Value 4
  EPWHeaderStation,                       !- Feature Name 5
  String,                                 !- Feature Data Type 5
  725650,                                 !- Feature Value 5
  EPWHeaderLatitude,                      !- Feature Name 6
  Double,                                 !- Feature Data Type 6
  39.829999999999998,                     !- Feature Value 6
  EPWHeaderLongitude,                     !- Feature Name 7
  Double,                                 !- Feature Data Type 7
  -104.65000000000001,                    !- Feature Value 7
  EPWHeaderTimezone,                      !- Feature Name 8
  Double,                                 !- Feature Data Type 8
  -7,                                     !- Feature Value 8
  EPWHeaderAltitude,                      !- Feature Name 9
  Double,                                 !- Feature Data Type 9
  5413.3858267716532,                     !- Feature Value 9
  EPWHeaderLocalPressure,                 !- Feature Name 10
  Double,                                 !- Feature Data Type 10
  0.81937567683596546,                    !- Feature Value 10
  EPWDataAnnualAvgDrybulb,                !- Feature Name 11
  Double,                                 !- Feature Data Type 11
  51.575616438356228,                     !- Feature Value 11
  EPWDataAnnualMinDrybulb,                !- Feature Name 12
  Double,                                 !- Feature Data Type 12
  -2.9200000000000017,                    !- Feature Value 12
  EPWDataAnnualMaxDrybulb,                !- Feature Name 13
  Double,                                 !- Feature Data Type 13
  104,                                    !- Feature Value 13
  EPWDataCDD50F,                          !- Feature Name 14
  Double,                                 !- Feature Data Type 14
  3072.2925000000005,                     !- Feature Value 14
  EPWDataCDD65F,                          !- Feature Name 15
  Double,                                 !- Feature Data Type 15
  883.62000000000035,                     !- Feature Value 15
  EPWDataHDD50F,                          !- Feature Name 16
  Double,                                 !- Feature Data Type 16
  2497.1925000000001,                     !- Feature Value 16
  EPWDataHDD65F,                          !- Feature Name 17
  Double,                                 !- Feature Data Type 17
  5783.5200000000013,                     !- Feature Value 17
  EPWDataAnnualAvgWindspeed,              !- Feature Name 18
  Double,                                 !- Feature Data Type 18
  3.9165296803649667,                     !- Feature Value 18
  EPWDataMonthlyAvgDrybulbs,              !- Feature Name 19
  String,                                 !- Feature Data Type 19
  33.4191935483871&#4431.90142857142857&#4443.02620967741937&#4442.48624999999999&#4459.877741935483854&#4473.57574999999997&#4472.07975806451608&#4472.70008064516134&#4466.49200000000006&#4450.079112903225806&#4437.218250000000005&#4434.582177419354835, !- Feature Value 19
  EPWDataGroundMonthlyTemps,              !- Feature Name 20
  String,                                 !- Feature Data Type 20
  44.08306285945173&#4440.89570904991865&#4440.64045432632048&#4442.153016571250646&#4448.225111118704206&#4454.268919273837525&#4459.508577937551024&#4462.82777283423508&#4463.10975667174995&#4460.41014950381947&#4455.304105212311526&#4449.445696474514364, !- Feature Value 20
  EPWDataWSF,                             !- Feature Name 21
  Double,                                 !- Feature Data Type 21
  0.58999999999999997,                    !- Feature Value 21
  EPWDataMonthlyAvgDailyHighDrybulbs,     !- Feature Name 22
  String,                                 !- Feature Data Type 22
  47.41032258064516&#4446.58642857142857&#4455.15032258064517&#4453.708&#4472.80193548387098&#4488.67600000000002&#4486.1858064516129&#4485.87225806451613&#4482.082&#4463.18064516129033&#4448.73400000000001&#4448.87935483870968, !- Feature Value 22
  EPWDataMonthlyAvgDailyLowDrybulbs,      !- Feature Name 23
  String,                                 !- Feature Data Type 23
  19.347741935483874&#4419.856428571428573&#4430.316129032258065&#4431.112&#4447.41612903225806&#4457.901999999999994&#4459.063870967741934&#4460.956774193548384&#4452.352000000000004&#4438.41612903225806&#4427.002000000000002&#4423.02903225806451, !- Feature Value 23
  EPWDesignHeatingDrybulb,                !- Feature Name 24
  Double,                                 !- Feature Data Type 24
  6.8000000000000007,                     !- Feature Value 24
  EPWDesignHeatingWindspeed,              !- Feature Name 25
  Double,                                 !- Feature Data Type 25
  12,                                     !- Feature Value 25
  EPWDesignCoolingDrybulb,                !- Feature Name 26
  Double,                                 !- Feature Data Type 26
  91.760000000000005,                     !- Feature Value 26
  EPWDesignCoolingWetbulb,                !- Feature Name 27
  Double,                                 !- Feature Data Type 27
  60.079999999999998,                     !- Feature Value 27
  EPWDesignCoolingHumidityRatio,          !- Feature Name 28
  Double,                                 !- Feature Data Type 28
  0.006050392196571398,                   !- Feature Value 28
  EPWDesignCoolingWindspeed,              !- Feature Name 29
  Double,                                 !- Feature Data Type 29
  4.2000000000000002,                     !- Feature Value 29
  EPWDesignDailyTemperatureRange,         !- Feature Name 30
  Double,                                 !- Feature Data Type 30
  27.359999999999999,                     !- Feature Value 30
  EPWDesignDehumidDrybulb,                !- Feature Name 31
  Double,                                 !- Feature Data Type 31
  67.280000000000001,                     !- Feature Value 31
  EPWDesignDehumidHumidityRatio,          !- Feature Name 32
  Double,                                 !- Feature Data Type 32
  0.012295426899271008,                   !- Feature Value 32
  EPWDesignCoolingDirectNormal,           !- Feature Name 33
  Double,                                 !- Feature Data Type 33
  985,                                    !- Feature Value 33
  EPWDesignCoolingDiffuseHorizontal,      !- Feature Name 34
  Double,                                 !- Feature Data Type 34
  84;                                     !- Feature Value 34

OS:YearDescription,
  {7f047beb-566c-413b-9a36-1ee4bfa4989f}, !- Handle
  ,                                       !- Calendar Year
  Monday;                                 !- Day of Week for Start Day

OS:ClimateZones,
  {322aec91-0f5d-4f61-a748-f7ef716f12d7}, !- Handle
  ,                                       !- Active Institution
  ,                                       !- Active Year
  ,                                       !- Climate Zone Institution Name 1
  ,                                       !- Climate Zone Document Name 1
  ,                                       !- Climate Zone Document Year 1
  ,                                       !- Climate Zone Value 1
  Building America,                       !- Climate Zone Institution Name 2
  ,                                       !- Climate Zone Document Name 2
  0,                                      !- Climate Zone Document Year 2
  Cold;                                   !- Climate Zone Value 2

OS:Site:WaterMainsTemperature,
  {3e7c8632-91f3-4a17-af87-68e678e8886f}, !- Handle
  Correlation,                            !- Calculation Method
  ,                                       !- Temperature Schedule Name
  10.8753424657535,                       !- Annual Average Outdoor Air Temperature {C}
  23.1524007936508;                       !- Maximum Difference In Monthly Average Outdoor Air Temperatures {deltaC}

OS:RunPeriodControl:DaylightSavingTime,
  {108cfa3a-6158-49a7-9d9b-2d7a2ba0753d}, !- Handle
  4/7,                                    !- Start Date
  10/26;                                  !- End Date

OS:Site:GroundTemperature:Deep,
  {5ba9b101-16f5-4744-8fe4-5b70be0ee3c1}, !- Handle
  10.8753424657535,                       !- January Deep Ground Temperature {C}
  10.8753424657535,                       !- February Deep Ground Temperature {C}
  10.8753424657535,                       !- March Deep Ground Temperature {C}
  10.8753424657535,                       !- April Deep Ground Temperature {C}
  10.8753424657535,                       !- May Deep Ground Temperature {C}
  10.8753424657535,                       !- June Deep Ground Temperature {C}
  10.8753424657535,                       !- July Deep Ground Temperature {C}
  10.8753424657535,                       !- August Deep Ground Temperature {C}
  10.8753424657535,                       !- September Deep Ground Temperature {C}
  10.8753424657535,                       !- October Deep Ground Temperature {C}
  10.8753424657535,                       !- November Deep Ground Temperature {C}
  10.8753424657535;                       !- December Deep Ground Temperature {C}

OS:ThermalZone,
  {dac650ec-713a-4021-988f-007f7abd6bdb}, !- Handle
  living zone,                            !- Name
  ,                                       !- Multiplier
  ,                                       !- Ceiling Height {m}
  ,                                       !- Volume {m3}
  ,                                       !- Floor Area {m2}
  ,                                       !- Zone Inside Convection Algorithm
  ,                                       !- Zone Outside Convection Algorithm
  ,                                       !- Zone Conditioning Equipment List Name
  {eb362fbf-3fdd-4418-af7b-ec83de775b09}, !- Zone Air Inlet Port List
  {53beee3a-5c4c-44f3-a7ac-1ceed8ece9e6}, !- Zone Air Exhaust Port List
  {a5e83705-ef4a-4af5-a158-8295d3ed658d}, !- Zone Air Node Name
  {3441e4c4-599b-4f35-b59b-e51680cbe5f7}, !- Zone Return Air Port List
  ,                                       !- Primary Daylighting Control Name
  ,                                       !- Fraction of Zone Controlled by Primary Daylighting Control
  ,                                       !- Secondary Daylighting Control Name
  ,                                       !- Fraction of Zone Controlled by Secondary Daylighting Control
  ,                                       !- Illuminance Map Name
  ,                                       !- Group Rendering Name
  {0a905286-f1e0-4b99-8b02-ff1ec4ed9eb3}, !- Thermostat Name
  No;                                     !- Use Ideal Air Loads

OS:Node,
  {cf70e02d-f798-4d66-8581-5fd07459a60b}, !- Handle
  Node 1,                                 !- Name
  {a5e83705-ef4a-4af5-a158-8295d3ed658d}, !- Inlet Port
  ;                                       !- Outlet Port

OS:Connection,
  {a5e83705-ef4a-4af5-a158-8295d3ed658d}, !- Handle
  {75a941fe-4bb3-468b-a074-e0d99e2d441f}, !- Name
  {dac650ec-713a-4021-988f-007f7abd6bdb}, !- Source Object
  11,                                     !- Outlet Port
  {cf70e02d-f798-4d66-8581-5fd07459a60b}, !- Target Object
  2;                                      !- Inlet Port

OS:PortList,
  {eb362fbf-3fdd-4418-af7b-ec83de775b09}, !- Handle
  {e13b460f-0529-4380-bcbf-e73f83680970}, !- Name
  {dac650ec-713a-4021-988f-007f7abd6bdb}, !- HVAC Component
  {84f58d5c-fdf5-4acb-88f4-adf534a359ba}, !- Port 1
  {91a76dac-5e06-4a91-bacf-e2e3c3466c37}; !- Port 2

OS:PortList,
  {53beee3a-5c4c-44f3-a7ac-1ceed8ece9e6}, !- Handle
  {8e468605-1d27-43f4-babe-8daba67a5698}, !- Name
  {dac650ec-713a-4021-988f-007f7abd6bdb}, !- HVAC Component
  {2ec9a8f2-3931-4c11-91b0-9cdfc0679af7}, !- Port 1
  {3c52bde8-78e0-4c2a-adf2-5fb4c7dabb50}; !- Port 2

OS:PortList,
  {3441e4c4-599b-4f35-b59b-e51680cbe5f7}, !- Handle
  {07c43002-7732-494c-8af6-84d1a679754e}, !- Name
  {dac650ec-713a-4021-988f-007f7abd6bdb}; !- HVAC Component

OS:Sizing:Zone,
  {806f7360-6d0c-4d44-b044-5cebc19634e1}, !- Handle
  {dac650ec-713a-4021-988f-007f7abd6bdb}, !- Zone or ZoneList Name
  SupplyAirTemperature,                   !- Zone Cooling Design Supply Air Temperature Input Method
  14,                                     !- Zone Cooling Design Supply Air Temperature {C}
  11.11,                                  !- Zone Cooling Design Supply Air Temperature Difference {deltaC}
  SupplyAirTemperature,                   !- Zone Heating Design Supply Air Temperature Input Method
  40,                                     !- Zone Heating Design Supply Air Temperature {C}
  11.11,                                  !- Zone Heating Design Supply Air Temperature Difference {deltaC}
  0.0085,                                 !- Zone Cooling Design Supply Air Humidity Ratio {kg-H2O/kg-air}
  0.008,                                  !- Zone Heating Design Supply Air Humidity Ratio {kg-H2O/kg-air}
  ,                                       !- Zone Heating Sizing Factor
  ,                                       !- Zone Cooling Sizing Factor
  DesignDay,                              !- Cooling Design Air Flow Method
  ,                                       !- Cooling Design Air Flow Rate {m3/s}
  ,                                       !- Cooling Minimum Air Flow per Zone Floor Area {m3/s-m2}
  ,                                       !- Cooling Minimum Air Flow {m3/s}
  ,                                       !- Cooling Minimum Air Flow Fraction
  DesignDay,                              !- Heating Design Air Flow Method
  ,                                       !- Heating Design Air Flow Rate {m3/s}
  ,                                       !- Heating Maximum Air Flow per Zone Floor Area {m3/s-m2}
  ,                                       !- Heating Maximum Air Flow {m3/s}
  ,                                       !- Heating Maximum Air Flow Fraction
  ,                                       !- Design Zone Air Distribution Effectiveness in Cooling Mode
  ,                                       !- Design Zone Air Distribution Effectiveness in Heating Mode
  No,                                     !- Account for Dedicated Outdoor Air System
  NeutralSupplyAir,                       !- Dedicated Outdoor Air System Control Strategy
  autosize,                               !- Dedicated Outdoor Air Low Setpoint Temperature for Design {C}
  autosize;                               !- Dedicated Outdoor Air High Setpoint Temperature for Design {C}

OS:ZoneHVAC:EquipmentList,
  {e8c1eb08-82ed-4985-8680-0bcaa65ecdc6}, !- Handle
  Zone HVAC Equipment List 1,             !- Name
  {dac650ec-713a-4021-988f-007f7abd6bdb}, !- Thermal Zone
  SequentialLoad,                         !- Load Distribution Scheme
  {1d36c148-2d39-4136-ba26-6519e6d5c3c4}, !- Zone Equipment 1
  3,                                      !- Zone Equipment Cooling Sequence 1
  3,                                      !- Zone Equipment Heating or No-Load Sequence 1
  {7af2682b-8813-4557-9d06-beaa9af1ea87}, !- Zone Equipment 2
  1,                                      !- Zone Equipment Cooling Sequence 2
  1,                                      !- Zone Equipment Heating or No-Load Sequence 2
  {3fdd4e6b-aa43-4d21-8cb8-0e6504e29b4f}, !- Zone Equipment 3
  2,                                      !- Zone Equipment Cooling Sequence 3
  2;                                      !- Zone Equipment Heating or No-Load Sequence 3

OS:ThermalZone,
  {a5376afd-14e2-4f77-a963-1d81ec1a7d5d}, !- Handle
  garage zone,                            !- Name
  ,                                       !- Multiplier
  ,                                       !- Ceiling Height {m}
  ,                                       !- Volume {m3}
  ,                                       !- Floor Area {m2}
  ,                                       !- Zone Inside Convection Algorithm
  ,                                       !- Zone Outside Convection Algorithm
  ,                                       !- Zone Conditioning Equipment List Name
  {8e618348-0bf5-4337-ab9d-8421029e637b}, !- Zone Air Inlet Port List
  {5cb0ba1d-aca6-4b63-93d2-3f539b9d21b1}, !- Zone Air Exhaust Port List
  {3e025cb5-f1b1-42a3-aeca-e424964964d6}, !- Zone Air Node Name
  {251d69c3-c050-461a-bc0a-8484e1d63297}, !- Zone Return Air Port List
  ,                                       !- Primary Daylighting Control Name
  ,                                       !- Fraction of Zone Controlled by Primary Daylighting Control
  ,                                       !- Secondary Daylighting Control Name
  ,                                       !- Fraction of Zone Controlled by Secondary Daylighting Control
  ,                                       !- Illuminance Map Name
  ,                                       !- Group Rendering Name
  ,                                       !- Thermostat Name
  No;                                     !- Use Ideal Air Loads

OS:Node,
  {1fc56924-9bd4-418d-95f9-8889680b9562}, !- Handle
  Node 2,                                 !- Name
  {3e025cb5-f1b1-42a3-aeca-e424964964d6}, !- Inlet Port
  ;                                       !- Outlet Port

OS:Connection,
  {3e025cb5-f1b1-42a3-aeca-e424964964d6}, !- Handle
  {06aed355-0ca6-41d2-980b-d72608ce7bc8}, !- Name
  {a5376afd-14e2-4f77-a963-1d81ec1a7d5d}, !- Source Object
  11,                                     !- Outlet Port
  {1fc56924-9bd4-418d-95f9-8889680b9562}, !- Target Object
  2;                                      !- Inlet Port

OS:PortList,
  {8e618348-0bf5-4337-ab9d-8421029e637b}, !- Handle
  {8c10acea-8fae-4fb3-b1a1-69245ec49dd6}, !- Name
  {a5376afd-14e2-4f77-a963-1d81ec1a7d5d}; !- HVAC Component

OS:PortList,
  {5cb0ba1d-aca6-4b63-93d2-3f539b9d21b1}, !- Handle
  {631172a1-8683-4821-8a7c-82f0459286b9}, !- Name
  {a5376afd-14e2-4f77-a963-1d81ec1a7d5d}; !- HVAC Component

OS:PortList,
  {251d69c3-c050-461a-bc0a-8484e1d63297}, !- Handle
  {21ec16c4-25d9-49ea-9855-42849eef320b}, !- Name
  {a5376afd-14e2-4f77-a963-1d81ec1a7d5d}; !- HVAC Component

OS:Sizing:Zone,
  {103df9fc-3cda-4be5-a1de-195f3e2e3990}, !- Handle
  {a5376afd-14e2-4f77-a963-1d81ec1a7d5d}, !- Zone or ZoneList Name
  SupplyAirTemperature,                   !- Zone Cooling Design Supply Air Temperature Input Method
  14,                                     !- Zone Cooling Design Supply Air Temperature {C}
  11.11,                                  !- Zone Cooling Design Supply Air Temperature Difference {deltaC}
  SupplyAirTemperature,                   !- Zone Heating Design Supply Air Temperature Input Method
  40,                                     !- Zone Heating Design Supply Air Temperature {C}
  11.11,                                  !- Zone Heating Design Supply Air Temperature Difference {deltaC}
  0.0085,                                 !- Zone Cooling Design Supply Air Humidity Ratio {kg-H2O/kg-air}
  0.008,                                  !- Zone Heating Design Supply Air Humidity Ratio {kg-H2O/kg-air}
  ,                                       !- Zone Heating Sizing Factor
  ,                                       !- Zone Cooling Sizing Factor
  DesignDay,                              !- Cooling Design Air Flow Method
  ,                                       !- Cooling Design Air Flow Rate {m3/s}
  ,                                       !- Cooling Minimum Air Flow per Zone Floor Area {m3/s-m2}
  ,                                       !- Cooling Minimum Air Flow {m3/s}
  ,                                       !- Cooling Minimum Air Flow Fraction
  DesignDay,                              !- Heating Design Air Flow Method
  ,                                       !- Heating Design Air Flow Rate {m3/s}
  ,                                       !- Heating Maximum Air Flow per Zone Floor Area {m3/s-m2}
  ,                                       !- Heating Maximum Air Flow {m3/s}
  ,                                       !- Heating Maximum Air Flow Fraction
  ,                                       !- Design Zone Air Distribution Effectiveness in Cooling Mode
  ,                                       !- Design Zone Air Distribution Effectiveness in Heating Mode
  No,                                     !- Account for Dedicated Outdoor Air System
  NeutralSupplyAir,                       !- Dedicated Outdoor Air System Control Strategy
  autosize,                               !- Dedicated Outdoor Air Low Setpoint Temperature for Design {C}
  autosize;                               !- Dedicated Outdoor Air High Setpoint Temperature for Design {C}

OS:ZoneHVAC:EquipmentList,
  {3e7adf88-a06d-40c1-8c50-ccfef1b2f09f}, !- Handle
  Zone HVAC Equipment List 2,             !- Name
  {a5376afd-14e2-4f77-a963-1d81ec1a7d5d}; !- Thermal Zone

OS:Space,
  {d9945fd0-4e2a-4f7a-a7f6-b61d963352cf}, !- Handle
  garage space,                           !- Name
  {148848a4-c48f-42d0-8f03-6ceb574b1fe6}, !- Space Type Name
  ,                                       !- Default Construction Set Name
  ,                                       !- Default Schedule Set Name
  -0,                                     !- Direction of Relative North {deg}
  0,                                      !- X Origin {m}
  0,                                      !- Y Origin {m}
  0,                                      !- Z Origin {m}
  ,                                       !- Building Story Name
  {a5376afd-14e2-4f77-a963-1d81ec1a7d5d}; !- Thermal Zone Name

OS:Surface,
  {df2a0ea1-fc68-4ef8-8827-826562c2e9e5}, !- Handle
  Surface 1,                              !- Name
  Floor,                                  !- Surface Type
  {b539257e-9e8d-4b1f-9f6a-9f196a77e761}, !- Construction Name
  {d9945fd0-4e2a-4f7a-a7f6-b61d963352cf}, !- Space Name
  Foundation,                             !- Outside Boundary Condition
  {8356249b-3bcd-43fc-bc30-d54e30e7850c}, !- Outside Boundary Condition Object
  NoSun,                                  !- Sun Exposure
  NoWind,                                 !- Wind Exposure
  ,                                       !- View Factor to Ground
  ,                                       !- Number of Vertices
  7.6199999993904, -3.048, 0,             !- X,Y,Z Vertex 1 {m}
  7.6199999993904, 3.048, 0,              !- X,Y,Z Vertex 2 {m}
  11.2775999993904, 3.048, 0,             !- X,Y,Z Vertex 3 {m}
  11.2775999993904, -3.048, 0;            !- X,Y,Z Vertex 4 {m}

OS:Surface,
  {fce2e323-3fb9-44f9-a1d3-901398a29fac}, !- Handle
  Surface 2,                              !- Name
  Wall,                                   !- Surface Type
  {db4ef137-cfcc-45c5-9f16-c458d91fd679}, !- Construction Name
  {d9945fd0-4e2a-4f7a-a7f6-b61d963352cf}, !- Space Name
  Surface,                                !- Outside Boundary Condition
  {e36cf8b9-ac27-4b1d-9399-b28d14791bc5}, !- Outside Boundary Condition Object
  NoSun,                                  !- Sun Exposure
  NoWind,                                 !- Wind Exposure
  ,                                       !- View Factor to Ground
  ,                                       !- Number of Vertices
  7.6199999993904, 3.048, 2.4384,         !- X,Y,Z Vertex 1 {m}
  7.6199999993904, 3.048, 0,              !- X,Y,Z Vertex 2 {m}