!- NOTE: Auto-generated from /test/osw_files/SFD_HVACSizing_Load_2story_UB_GRG_FA.osw

OS:Version,
  {1e7e6fb8-735b-4c51-8faf-ebba61983273}, !- Handle
  2.6.2;                                  !- Version Identifier

OS:Building,
  {5d0d8279-ce9e-4f50-a1f5-5243ebaabeb8}, !- Handle
  Building 1,                             !- Name
  ,                                       !- Building Sector Type
  22.5,                                   !- North Axis {deg}
  ,                                       !- Nominal Floor to Floor Height {m}
  ,                                       !- Space Type Name
  ,                                       !- Default Construction Set Name
  ,                                       !- Default Schedule Set Name
  3,                                      !- Standards Number of Stories
  3,                                      !- Standards Number of Above Ground Stories
  singlefamilydetached,                   !- Standards Building Type
  1;                                      !- Standards Number of Living Units

OS:Facility,
  {771bbbd2-f9ca-434c-8888-3d61550d9a0b}; !- Handle

OS:Site,
  {6eeda96c-1c5e-41d9-9b5f-b291618463fb}, !- Handle
  Denver Intl Ap_CO_USA,                  !- Name
  39.83,                                  !- Latitude {deg}
  -104.65,                                !- Longitude {deg}
  -7,                                     !- Time Zone {hr}
  1650,                                   !- Elevation {m}
  Suburbs;                                !- Terrain

OS:SimulationControl,
  {20aaed1e-defc-4ba4-958d-e0079630ae94}, !- Handle
  ,                                       !- Do Zone Sizing Calculation
  ,                                       !- Do System Sizing Calculation
  ,                                       !- Do Plant Sizing Calculation
  No;                                     !- Run Simulation for Sizing Periods

OS:Sizing:Parameters,
  {38890a64-f5b0-46db-abb4-87372e6e1564}, !- Handle
  1.25,                                   !- Heating Sizing Factor
  1.15;                                   !- Cooling Sizing Factor

OS:Timestep,
  {c230dac7-c439-4542-be95-82a9da939de1}, !- Handle
  6;                                      !- Number of Timesteps per Hour

OS:ShadowCalculation,
  {381ef640-9ee1-4c1e-86cb-0c3f39ef8354}, !- Handle
  20,                                     !- Calculation Frequency
  200;                                    !- Maximum Figures in Shadow Overlap Calculations

OS:HeatBalanceAlgorithm,
  {21db2170-9cde-4b18-9fe2-d06c2b143a08}, !- Handle
  ConductionTransferFunction,             !- Algorithm
  200;                                    !- Surface Temperature Upper Limit {C}

OS:RunPeriod,
  {523c8ac3-7435-4d7c-8aef-e760a3a0220f}, !- Handle
  Run Period 1,                           !- Name
  1,                                      !- Begin Month
  1,                                      !- Begin Day of Month
  12,                                     !- End Month
  31,                                     !- End Day of Month
  ,                                       !- Use Weather File Holidays and Special Days
  ,                                       !- Use Weather File Daylight Saving Period
  ,                                       !- Apply Weekend Holiday Rule
  ,                                       !- Use Weather File Rain Indicators
  ,                                       !- Use Weather File Snow Indicators
  ;                                       !- Number of Times Runperiod to be Repeated

OS:LifeCycleCost:Parameters,
  {b5a83706-5724-4b7c-9134-8784837bfc8b}, !- Handle
  ,                                       !- Analysis Type
  ,                                       !- Discounting Convention
  ,                                       !- Inflation Approach
  ,                                       !- Real Discount Rate
  ,                                       !- Nominal Discount Rate
  ,                                       !- Inflation
  ,                                       !- Base Date Month
  ,                                       !- Base Date Year
  ,                                       !- Service Date Month
  ,                                       !- Service Date Year
  ;                                       !- Length of Study Period in Years

OS:SurfaceConvectionAlgorithm:Outside,
  {09b93be5-44b1-40ef-82df-9085e0823999}, !- Handle
  DOE-2;                                  !- Algorithm

OS:SurfaceConvectionAlgorithm:Inside,
  {5c9dbd34-adc0-49f7-afe3-cebd321344d6}, !- Handle
  TARP;                                   !- Algorithm

OS:ZoneCapacitanceMultiplier:ResearchSpecial,
  {4fe5d4b0-0965-44d8-9a49-4d5877dd63d3}, !- Handle
  ,                                       !- Temperature Capacity Multiplier
  15,                                     !- Humidity Capacity Multiplier
  ;                                       !- Carbon Dioxide Capacity Multiplier

OS:WeatherFile,
  {0ecc7263-2151-4b85-8164-1a311ea8c91d}, !- Handle
  Denver Intl Ap,                         !- City
  CO,                                     !- State Province Region
  USA,                                    !- Country
  TMY3,                                   !- Data Source
  725650,                                 !- WMO Number
  39.83,                                  !- Latitude {deg}
  -104.65,                                !- Longitude {deg}
  -7,                                     !- Time Zone {hr}
  1650,                                   !- Elevation {m}
  file:../tests/USA_CO_Denver_Intl_AP_725650_TMY3.epw, !- Url
  E23378AA;                               !- Checksum

OS:BuildingUnit,
  {0be19bde-4cf3-4d4f-a92b-1e985473ac13}, !- Handle
  EPWWeatherInfo,                         !- Name
  ,                                       !- Rendering Color
  Residential;                            !- Building Unit Type

OS:AdditionalProperties,
  {f884082b-adb5-4dec-9f37-6ee8627019d4}, !- Handle
  {0be19bde-4cf3-4d4f-a92b-1e985473ac13}, !- Object Name
  EPWHeaderCity,                          !- Feature Name 1
  String,                                 !- Feature Data Type 1
  Denver Intl Ap,                         !- Feature Value 1
  EPWHeaderState,                         !- Feature Name 2
  String,                                 !- Feature Data Type 2
  CO,                                     !- Feature Value 2
  EPWHeaderCountry,                       !- Feature Name 3
  String,                                 !- Feature Data Type 3
  USA,                                    !- Feature Value 3
  EPWHeaderDataSource,                    !- Feature Name 4
  String,                                 !- Feature Data Type 4
  TMY3,                                   !- Feature Value 4
  EPWHeaderStation,                       !- Feature Name 5
  String,                                 !- Feature Data Type 5
  725650,                                 !- Feature Value 5
  EPWHeaderLatitude,                      !- Feature Name 6
  Double,                                 !- Feature Data Type 6
  39.829999999999998,                     !- Feature Value 6
  EPWHeaderLongitude,                     !- Feature Name 7
  Double,                                 !- Feature Data Type 7
  -104.65000000000001,                    !- Feature Value 7
  EPWHeaderTimezone,                      !- Feature Name 8
  Double,                                 !- Feature Data Type 8
  -7,                                     !- Feature Value 8
  EPWHeaderAltitude,                      !- Feature Name 9
  Double,                                 !- Feature Data Type 9
  5413.3858267716532,                     !- Feature Value 9
  EPWHeaderLocalPressure,                 !- Feature Name 10
  Double,                                 !- Feature Data Type 10
  0.81937567683596546,                    !- Feature Value 10
  EPWDataAnnualAvgDrybulb,                !- Feature Name 11
  Double,                                 !- Feature Data Type 11
  51.575616438356228,                     !- Feature Value 11
  EPWDataAnnualMinDrybulb,                !- Feature Name 12
  Double,                                 !- Feature Data Type 12
  -2.9200000000000017,                    !- Feature Value 12
  EPWDataAnnualMaxDrybulb,                !- Feature Name 13
  Double,                                 !- Feature Data Type 13
  104,                                    !- Feature Value 13
  EPWDataCDD50F,                          !- Feature Name 14
  Double,                                 !- Feature Data Type 14
  3072.2925000000005,                     !- Feature Value 14
  EPWDataCDD65F,                          !- Feature Name 15
  Double,                                 !- Feature Data Type 15
  883.62000000000035,                     !- Feature Value 15
  EPWDataHDD50F,                          !- Feature Name 16
  Double,                                 !- Feature Data Type 16
  2497.1925000000001,                     !- Feature Value 16
  EPWDataHDD65F,                          !- Feature Name 17
  Double,                                 !- Feature Data Type 17
  5783.5200000000013,                     !- Feature Value 17
  EPWDataAnnualAvgWindspeed,              !- Feature Name 18
  Double,                                 !- Feature Data Type 18
  3.9165296803649667,                     !- Feature Value 18
  EPWDataMonthlyAvgDrybulbs,              !- Feature Name 19
  String,                                 !- Feature Data Type 19
  33.4191935483871&#4431.90142857142857&#4443.02620967741937&#4442.48624999999999&#4459.877741935483854&#4473.57574999999997&#4472.07975806451608&#4472.70008064516134&#4466.49200000000006&#4450.079112903225806&#4437.218250000000005&#4434.582177419354835, !- Feature Value 19
  EPWDataGroundMonthlyTemps,              !- Feature Name 20
  String,                                 !- Feature Data Type 20
  44.08306285945173&#4440.89570904991865&#4440.64045432632048&#4442.153016571250646&#4448.225111118704206&#4454.268919273837525&#4459.508577937551024&#4462.82777283423508&#4463.10975667174995&#4460.41014950381947&#4455.304105212311526&#4449.445696474514364, !- Feature Value 20
  EPWDataWSF,                             !- Feature Name 21
  Double,                                 !- Feature Data Type 21
  0.58999999999999997,                    !- Feature Value 21
  EPWDataMonthlyAvgDailyHighDrybulbs,     !- Feature Name 22
  String,                                 !- Feature Data Type 22
  47.41032258064516&#4446.58642857142857&#4455.15032258064517&#4453.708&#4472.80193548387098&#4488.67600000000002&#4486.1858064516129&#4485.87225806451613&#4482.082&#4463.18064516129033&#4448.73400000000001&#4448.87935483870968, !- Feature Value 22
  EPWDataMonthlyAvgDailyLowDrybulbs,      !- Feature Name 23
  String,                                 !- Feature Data Type 23
  19.347741935483874&#4419.856428571428573&#4430.316129032258065&#4431.112&#4447.41612903225806&#4457.901999999999994&#4459.063870967741934&#4460.956774193548384&#4452.352000000000004&#4438.41612903225806&#4427.002000000000002&#4423.02903225806451, !- Feature Value 23
  EPWDesignHeatingDrybulb,                !- Feature Name 24
  Double,                                 !- Feature Data Type 24
  6.8000000000000007,                     !- Feature Value 24
  EPWDesignHeatingWindspeed,              !- Feature Name 25
  Double,                                 !- Feature Data Type 25
  12,                                     !- Feature Value 25
  EPWDesignCoolingDrybulb,                !- Feature Name 26
  Double,                                 !- Feature Data Type 26
  91.760000000000005,                     !- Feature Value 26
  EPWDesignCoolingWetbulb,                !- Feature Name 27
  Double,                                 !- Feature Data Type 27
  60.079999999999998,                     !- Feature Value 27
  EPWDesignCoolingHumidityRatio,          !- Feature Name 28
  Double,                                 !- Feature Data Type 28
  0.006050392196571398,                   !- Feature Value 28
  EPWDesignCoolingWindspeed,              !- Feature Name 29
  Double,                                 !- Feature Data Type 29
  4.2000000000000002,                     !- Feature Value 29
  EPWDesignDailyTemperatureRange,         !- Feature Name 30
  Double,                                 !- Feature Data Type 30
  27.359999999999999,                     !- Feature Value 30
  EPWDesignDehumidDrybulb,                !- Feature Name 31
  Double,                                 !- Feature Data Type 31
  67.280000000000001,                     !- Feature Value 31
  EPWDesignDehumidHumidityRatio,          !- Feature Name 32
  Double,                                 !- Feature Data Type 32
  0.012295426899271008,                   !- Feature Value 32
  EPWDesignCoolingDirectNormal,           !- Feature Name 33
  Double,                                 !- Feature Data Type 33
  985,                                    !- Feature Value 33
  EPWDesignCoolingDiffuseHorizontal,      !- Feature Name 34
  Double,                                 !- Feature Data Type 34
  84;                                     !- Feature Value 34

OS:YearDescription,
  {4fc5e987-6b34-4bb9-8ceb-d1473a5e8a8c}, !- Handle
  ,                                       !- Calendar Year
  Monday;                                 !- Day of Week for Start Day

OS:ClimateZones,
  {a487191f-2f1b-491a-9e7e-6407a578b6de}, !- Handle
  ,                                       !- Active Institution
  ,                                       !- Active Year
  ,                                       !- Climate Zone Institution Name 1
  ,                                       !- Climate Zone Document Name 1
  ,                                       !- Climate Zone Document Year 1
  ,                                       !- Climate Zone Value 1
  Building America,                       !- Climate Zone Institution Name 2
  ,                                       !- Climate Zone Document Name 2
  0,                                      !- Climate Zone Document Year 2
  Cold;                                   !- Climate Zone Value 2

OS:Site:WaterMainsTemperature,
  {aa8048d9-83ef-467d-94ca-81e697ab8f74}, !- Handle
  Correlation,                            !- Calculation Method
  ,                                       !- Temperature Schedule Name
  10.8753424657535,                       !- Annual Average Outdoor Air Temperature {C}
  23.1524007936508;                       !- Maximum Difference In Monthly Average Outdoor Air Temperatures {deltaC}

OS:RunPeriodControl:DaylightSavingTime,
  {deab3b9a-afcc-41e6-90be-2b6c52d5b511}, !- Handle
  4/7,                                    !- Start Date
  10/26;                                  !- End Date

OS:Site:GroundTemperature:Deep,
  {c4746096-707f-4e1e-8d7a-6017dac99ec0}, !- Handle
  10.8753424657535,                       !- January Deep Ground Temperature {C}
  10.8753424657535,                       !- February Deep Ground Temperature {C}
  10.8753424657535,                       !- March Deep Ground Temperature {C}
  10.8753424657535,                       !- April Deep Ground Temperature {C}
  10.8753424657535,                       !- May Deep Ground Temperature {C}
  10.8753424657535,                       !- June Deep Ground Temperature {C}
  10.8753424657535,                       !- July Deep Ground Temperature {C}
  10.8753424657535,                       !- August Deep Ground Temperature {C}
  10.8753424657535,                       !- September Deep Ground Temperature {C}
  10.8753424657535,                       !- October Deep Ground Temperature {C}
  10.8753424657535,                       !- November Deep Ground Temperature {C}
  10.8753424657535;                       !- December Deep Ground Temperature {C}

OS:ThermalZone,
  {dd355cc0-1118-4454-b080-c3bb5b007f8d}, !- Handle
  living zone,                            !- Name
  ,                                       !- Multiplier
  ,                                       !- Ceiling Height {m}
  ,                                       !- Volume {m3}
  ,                                       !- Floor Area {m2}
  ,                                       !- Zone Inside Convection Algorithm
  ,                                       !- Zone Outside Convection Algorithm
  ,                                       !- Zone Conditioning Equipment List Name
  {cdf20dc6-6c5f-4e4a-8df8-c9dac7d4f80f}, !- Zone Air Inlet Port List
  {650d0fa9-0814-4652-bb63-7bffeec5e66d}, !- Zone Air Exhaust Port List
  {015aa406-084f-470d-a339-510ab4434729}, !- Zone Air Node Name
  {13bda36c-2d4f-440d-8098-caf0e5795d78}, !- Zone Return Air Port List
  ,                                       !- Primary Daylighting Control Name
  ,                                       !- Fraction of Zone Controlled by Primary Daylighting Control
  ,                                       !- Secondary Daylighting Control Name
  ,                                       !- Fraction of Zone Controlled by Secondary Daylighting Control
  ,                                       !- Illuminance Map Name
  ,                                       !- Group Rendering Name
  ,                                       !- Thermostat Name
  No;                                     !- Use Ideal Air Loads

OS:Node,
  {7e1c575a-eea4-4d94-8cc9-db7fdcc1ee96}, !- Handle
  Node 1,                                 !- Name
  {015aa406-084f-470d-a339-510ab4434729}, !- Inlet Port
  ;                                       !- Outlet Port

OS:Connection,
  {015aa406-084f-470d-a339-510ab4434729}, !- Handle
  {d060472d-428d-43ab-b9f3-10918d1bc7df}, !- Name
  {dd355cc0-1118-4454-b080-c3bb5b007f8d}, !- Source Object
  11,                                     !- Outlet Port
  {7e1c575a-eea4-4d94-8cc9-db7fdcc1ee96}, !- Target Object
  2;                                      !- Inlet Port

OS:PortList,
  {cdf20dc6-6c5f-4e4a-8df8-c9dac7d4f80f}, !- Handle
  {8bd4b012-7163-43ca-a3a2-d6acdc0e86aa}, !- Name
  {dd355cc0-1118-4454-b080-c3bb5b007f8d}; !- HVAC Component

OS:PortList,
  {650d0fa9-0814-4652-bb63-7bffeec5e66d}, !- Handle
  {5f26cebb-c911-415b-ac2c-d99ef552394d}, !- Name
  {dd355cc0-1118-4454-b080-c3bb5b007f8d}; !- HVAC Component

OS:PortList,
  {13bda36c-2d4f-440d-8098-caf0e5795d78}, !- Handle
  {13a0601b-4348-4a92-9ef7-50c2c27d470e}, !- Name
  {dd355cc0-1118-4454-b080-c3bb5b007f8d}; !- HVAC Component

OS:Sizing:Zone,
  {a18ff8ed-a789-4c24-b6f9-d4986b3b1a58}, !- Handle
  {dd355cc0-1118-4454-b080-c3bb5b007f8d}, !- Zone or ZoneList Name
  SupplyAirTemperature,                   !- Zone Cooling Design Supply Air Temperature Input Method
  14,                                     !- Zone Cooling Design Supply Air Temperature {C}
  11.11,                                  !- Zone Cooling Design Supply Air Temperature Difference {deltaC}
  SupplyAirTemperature,                   !- Zone Heating Design Supply Air Temperature Input Method
  40,                                     !- Zone Heating Design Supply Air Temperature {C}
  11.11,                                  !- Zone Heating Design Supply Air Temperature Difference {deltaC}
  0.0085,                                 !- Zone Cooling Design Supply Air Humidity Ratio {kg-H2O/kg-air}
  0.008,                                  !- Zone Heating Design Supply Air Humidity Ratio {kg-H2O/kg-air}
  ,                                       !- Zone Heating Sizing Factor
  ,                                       !- Zone Cooling Sizing Factor
  DesignDay,                              !- Cooling Design Air Flow Method
  ,                                       !- Cooling Design Air Flow Rate {m3/s}
  ,                                       !- Cooling Minimum Air Flow per Zone Floor Area {m3/s-m2}
  ,                                       !- Cooling Minimum Air Flow {m3/s}
  ,                                       !- Cooling Minimum Air Flow Fraction
  DesignDay,                              !- Heating Design Air Flow Method
  ,                                       !- Heating Design Air Flow Rate {m3/s}
  ,                                       !- Heating Maximum Air Flow per Zone Floor Area {m3/s-m2}
  ,                                       !- Heating Maximum Air Flow {m3/s}
  ,                                       !- Heating Maximum Air Flow Fraction
  ,                                       !- Design Zone Air Distribution Effectiveness in Cooling Mode
  ,                                       !- Design Zone Air Distribution Effectiveness in Heating Mode
  No,                                     !- Account for Dedicated Outdoor Air System
  NeutralSupplyAir,                       !- Dedicated Outdoor Air System Control Strategy
  autosize,                               !- Dedicated Outdoor Air Low Setpoint Temperature for Design {C}
  autosize;                               !- Dedicated Outdoor Air High Setpoint Temperature for Design {C}

OS:ZoneHVAC:EquipmentList,
  {d36c8100-6b2c-4a5e-9d16-44c66e08dc57}, !- Handle
  Zone HVAC Equipment List 1,             !- Name
  {dd355cc0-1118-4454-b080-c3bb5b007f8d}; !- Thermal Zone

OS:ThermalZone,
  {124d5ab1-7d9c-456c-8554-400c5e838223}, !- Handle
  garage zone,                            !- Name
  ,                                       !- Multiplier
  ,                                       !- Ceiling Height {m}
  ,                                       !- Volume {m3}
  ,                                       !- Floor Area {m2}
  ,                                       !- Zone Inside Convection Algorithm
  ,                                       !- Zone Outside Convection Algorithm
  ,                                       !- Zone Conditioning Equipment List Name
  {e701e2d6-df96-4d0e-8b36-a12f8b8270c7}, !- Zone Air Inlet Port List
  {0df12d22-7514-40ea-bc05-a5df3a36b531}, !- Zone Air Exhaust Port List
  {366e7fb6-4198-4a31-896f-a4be52838132}, !- Zone Air Node Name
  {ad075d0a-ba02-4da9-a9c5-2ab831b25ae8}, !- Zone Return Air Port List
  ,                                       !- Primary Daylighting Control Name
  ,                                       !- Fraction of Zone Controlled by Primary Daylighting Control
  ,                                       !- Secondary Daylighting Control Name
  ,                                       !- Fraction of Zone Controlled by Secondary Daylighting Control
  ,                                       !- Illuminance Map Name
  ,                                       !- Group Rendering Name
  ,                                       !- Thermostat Name
  No;                                     !- Use Ideal Air Loads

OS:Node,
  {ebc3f4f2-3041-48ef-9523-e89fc5effdbe}, !- Handle
  Node 2,                                 !- Name
  {366e7fb6-4198-4a31-896f-a4be52838132}, !- Inlet Port
  ;                                       !- Outlet Port

OS:Connection,
  {366e7fb6-4198-4a31-896f-a4be52838132}, !- Handle
  {76d528d1-b502-4689-aaac-560fb0a18b3f}, !- Name
  {124d5ab1-7d9c-456c-8554-400c5e838223}, !- Source Object
  11,                                     !- Outlet Port
  {ebc3f4f2-3041-48ef-9523-e89fc5effdbe}, !- Target Object
  2;                                      !- Inlet Port

OS:PortList,
  {e701e2d6-df96-4d0e-8b36-a12f8b8270c7}, !- Handle
  {4d3157cb-d3f2-4a02-91ce-2325c5e24c41}, !- Name
  {124d5ab1-7d9c-456c-8554-400c5e838223}; !- HVAC Component

OS:PortList,
  {0df12d22-7514-40ea-bc05-a5df3a36b531}, !- Handle
  {c114ea03-f07a-4bed-a2dd-40b12627ebba}, !- Name
  {124d5ab1-7d9c-456c-8554-400c5e838223}; !- HVAC Component

OS:PortList,
  {ad075d0a-ba02-4da9-a9c5-2ab831b25ae8}, !- Handle
  {42979d8b-70c3-41ec-b86e-402fe5f404e9}, !- Name
  {124d5ab1-7d9c-456c-8554-400c5e838223}; !- HVAC Component

OS:Sizing:Zone,
  {08d3eb60-4bec-4b19-8cf5-ef0abba9dc5b}, !- Handle
  {124d5ab1-7d9c-456c-8554-400c5e838223}, !- Zone or ZoneList Name
  SupplyAirTemperature,                   !- Zone Cooling Design Supply Air Temperature Input Method
  14,                                     !- Zone Cooling Design Supply Air Temperature {C}
  11.11,                                  !- Zone Cooling Design Supply Air Temperature Difference {deltaC}
  SupplyAirTemperature,                   !- Zone Heating Design Supply Air Temperature Input Method
  40,                                     !- Zone Heating Design Supply Air Temperature {C}
  11.11,                                  !- Zone Heating Design Supply Air Temperature Difference {deltaC}
  0.0085,                                 !- Zone Cooling Design Supply Air Humidity Ratio {kg-H2O/kg-air}
  0.008,                                  !- Zone Heating Design Supply Air Humidity Ratio {kg-H2O/kg-air}
  ,                                       !- Zone Heating Sizing Factor
  ,                                       !- Zone Cooling Sizing Factor
  DesignDay,                              !- Cooling Design Air Flow Method
  ,                                       !- Cooling Design Air Flow Rate {m3/s}
  ,                                       !- Cooling Minimum Air Flow per Zone Floor Area {m3/s-m2}
  ,                                       !- Cooling Minimum Air Flow {m3/s}
  ,                                       !- Cooling Minimum Air Flow Fraction
  DesignDay,                              !- Heating Design Air Flow Method
  ,                                       !- Heating Design Air Flow Rate {m3/s}
  ,                                       !- Heating Maximum Air Flow per Zone Floor Area {m3/s-m2}
  ,                                       !- Heating Maximum Air Flow {m3/s}
  ,                                       !- Heating Maximum Air Flow Fraction
  ,                                       !- Design Zone Air Distribution Effectiveness in Cooling Mode
  ,                                       !- Design Zone Air Distribution Effectiveness in Heating Mode
  No,                                     !- Account for Dedicated Outdoor Air System
  NeutralSupplyAir,                       !- Dedicated Outdoor Air System Control Strategy
  autosize,                               !- Dedicated Outdoor Air Low Setpoint Temperature for Design {C}
  autosize;                               !- Dedicated Outdoor Air High Setpoint Temperature for Design {C}

OS:ZoneHVAC:EquipmentList,
  {06ea8931-e006-4849-bbbb-41c998354ff0}, !- Handle
  Zone HVAC Equipment List 2,             !- Name
  {124d5ab1-7d9c-456c-8554-400c5e838223}; !- Thermal Zone

OS:Space,
  {eaa87f9e-fdb7-4e5f-8e11-66a8a10d0e96}, !- Handle
  garage space,                           !- Name
  {bf98c8c6-0ef4-4b1a-9c74-37fab09189d0}, !- Space Type Name
  ,                                       !- Default Construction Set Name
  ,                                       !- Default Schedule Set Name
  -0,                                     !- Direction of Relative North {deg}
  0,                                      !- X Origin {m}
  0,                                      !- Y Origin {m}
  0,                                      !- Z Origin {m}
  ,                                       !- Building Story Name
  {124d5ab1-7d9c-456c-8554-400c5e838223}; !- Thermal Zone Name

OS:Surface,
  {40d82be0-0c8c-4b29-bc6d-e2f72cf48d12}, !- Handle
  Surface 1,                              !- Name
  Floor,                                  !- Surface Type
  {84208bde-c940-43cc-a18a-4bac5b7b40cf}, !- Construction Name
  {eaa87f9e-fdb7-4e5f-8e11-66a8a10d0e96}, !- Space Name
  Foundation,                             !- Outside Boundary Condition
  {b19725a7-60eb-47fb-b858-426323104ac2}, !- Outside Boundary Condition Object
  NoSun,                                  !- Sun Exposure
  NoWind,                                 !- Wind Exposure
  ,                                       !- View Factor to Ground
  ,                                       !- Number of Vertices
  7.6199999993904, -3.048, 0,             !- X,Y,Z Vertex 1 {m}
  7.6199999993904, 3.048, 0,              !- X,Y,Z Vertex 2 {m}
  11.2775999993904, 3.048, 0,             !- X,Y,Z Vertex 3 {m}
  11.2775999993904, -3.048, 0;            !- X,Y,Z Vertex 4 {m}

OS:Surface,
  {116c2ab7-c15c-4bee-b172-67378a5e16bb}, !- Handle
  Surface 2,                              !- Name
  Wall,                                   !- Surface Type
  {6ebf8201-83b1-48ac-a7cc-389b3774b2dd}, !- Construction Name
  {eaa87f9e-fdb7-4e5f-8e11-66a8a10d0e96}, !- Space Name
  Surface,                                !- Outside Boundary Condition
  {9cf3093d-ca75-4efb-89a4-4853d20932c2}, !- Outside Boundary Condition Object
  NoSun,                                  !- Sun Exposure
  NoWind,                                 !- Wind Exposure
  ,                                       !- View Factor to Ground
  ,                                       !- Number of Vertices
  7.6199999993904, 3.048, 2.4384,         !- X,Y,Z Vertex 1 {m}
  7.6199999993904, 3.048, 0,              !- X,Y,Z Vertex 2 {m}
  7.6199999993904, 0, 0,                  !- X,Y,Z Vertex 3 {m}
  7.6199999993904, 0, 2.4384;             !- X,Y,Z Vertex 4 {m}

OS:Surface,
  {4c111966-0348-4d1c-81b0-9020d813599d}, !- Handle
  Surface 3,                              !- Name
  Wall,                                   !- Surface Type
  {6ebf8201-83b1-48ac-a7cc-389b3774b2dd}, !- Construction Name
  {eaa87f9e-fdb7-4e5f-8e11-66a8a10d0e96}, !- Space Name
  Surface,                                !- Outside Boundary Condition
  {ab16b6e5-f246-49a5-b402-4f4ba3cb9041}, !- Outside Boundary Condition Object
  NoSun,                                  !- Sun Exposure
  NoWind,                                 !- Wind Exposure
  ,                                       !- View Factor to Ground
  ,                                       !- Number of Vertices
  11.2775999993904, 3.048, 2.4384,        !- X,Y,Z Vertex 1 {m}
  11.2775999993904, 3.048, 0,             !- X,Y,Z Vertex 2 {m}