!- NOTE: Auto-generated from /test/osw_files/SFD_HVACSizing_Load_1story_S_UA_Vented_Atlanta_ExtFinDark.osw

OS:Version,
  {692486fb-d379-42a5-8754-463db676ec89}, !- Handle
  2.6.2;                                  !- Version Identifier

OS:Building,
  {d2b52185-5444-4cf4-b4f8-4cc0c236250a}, !- Handle
  Building 1,                             !- Name
  ,                                       !- Building Sector Type
  22.5,                                   !- North Axis {deg}
  ,                                       !- Nominal Floor to Floor Height {m}
  ,                                       !- Space Type Name
  ,                                       !- Default Construction Set Name
  ,                                       !- Default Schedule Set Name
  1,                                      !- Standards Number of Stories
  1,                                      !- Standards Number of Above Ground Stories
  singlefamilydetached,                   !- Standards Building Type
  1;                                      !- Standards Number of Living Units

OS:Facility,
  {9ce0dcc9-b041-40b7-8cd3-0f4d28d8a7a3}; !- Handle

OS:Site,
  {a38e0371-0f72-4b99-bfeb-8cfd2b99be7c}, !- Handle
  Atlanta Hartsfield Intl Ap_GA_USA,      !- Name
  33.63,                                  !- Latitude {deg}
  -84.43,                                 !- Longitude {deg}
  -5,                                     !- Time Zone {hr}
  308,                                    !- Elevation {m}
  Suburbs;                                !- Terrain

OS:SimulationControl,
  {19b65f93-0c16-4ea4-876e-ac8e4e536ee4}, !- Handle
  ,                                       !- Do Zone Sizing Calculation
  ,                                       !- Do System Sizing Calculation
  ,                                       !- Do Plant Sizing Calculation
  No;                                     !- Run Simulation for Sizing Periods

OS:Sizing:Parameters,
  {fed8ba77-112f-47ba-b1b8-417487c101b1}, !- Handle
  1.25,                                   !- Heating Sizing Factor
  1.15;                                   !- Cooling Sizing Factor

OS:Timestep,
  {dbdd188b-581e-4f5e-8d3f-b1dab86d7937}, !- Handle
  6;                                      !- Number of Timesteps per Hour

OS:ShadowCalculation,
  {207402d1-133d-4f70-8132-4264ea03ad4f}, !- Handle
  20,                                     !- Calculation Frequency
  200;                                    !- Maximum Figures in Shadow Overlap Calculations

OS:HeatBalanceAlgorithm,
  {256ae84a-8729-4f1c-b70b-508b792ea491}, !- Handle
  ConductionTransferFunction,             !- Algorithm
  200;                                    !- Surface Temperature Upper Limit {C}

OS:RunPeriod,
  {936233a2-8a90-47c7-9336-5172f7f2ed15}, !- Handle
  Run Period 1,                           !- Name
  1,                                      !- Begin Month
  1,                                      !- Begin Day of Month
  12,                                     !- End Month
  31,                                     !- End Day of Month
  ,                                       !- Use Weather File Holidays and Special Days
  ,                                       !- Use Weather File Daylight Saving Period
  ,                                       !- Apply Weekend Holiday Rule
  ,                                       !- Use Weather File Rain Indicators
  ,                                       !- Use Weather File Snow Indicators
  ;                                       !- Number of Times Runperiod to be Repeated

OS:LifeCycleCost:Parameters,
  {ffcd7044-53c2-4115-b070-c3e2ab3d68d2}, !- Handle
  ,                                       !- Analysis Type
  ,                                       !- Discounting Convention
  ,                                       !- Inflation Approach
  ,                                       !- Real Discount Rate
  ,                                       !- Nominal Discount Rate
  ,                                       !- Inflation
  ,                                       !- Base Date Month
  ,                                       !- Base Date Year
  ,                                       !- Service Date Month
  ,                                       !- Service Date Year
  ;                                       !- Length of Study Period in Years

OS:SurfaceConvectionAlgorithm:Outside,
  {ec0979d2-81ea-4df6-b25e-2c8c3b139d4e}, !- Handle
  DOE-2;                                  !- Algorithm

OS:SurfaceConvectionAlgorithm:Inside,
  {f06d2388-b8b0-4474-9790-f4502ec308c3}, !- Handle
  TARP;                                   !- Algorithm

OS:ZoneCapacitanceMultiplier:ResearchSpecial,
  {d2e0a85b-f10c-4876-b712-934814b66283}, !- Handle
  ,                                       !- Temperature Capacity Multiplier
  15,                                     !- Humidity Capacity Multiplier
  ;                                       !- Carbon Dioxide Capacity Multiplier

OS:WeatherFile,
  {b53e9432-88bc-472e-8659-903c07d4b243}, !- Handle
  Atlanta Hartsfield Intl Ap,             !- City
  GA,                                     !- State Province Region
  USA,                                    !- Country
  TMY3,                                   !- Data Source
  722190,                                 !- WMO Number
  33.63,                                  !- Latitude {deg}
  -84.43,                                 !- Longitude {deg}
  -5,                                     !- Time Zone {hr}
  308,                                    !- Elevation {m}
  file:../tests/USA_GA_Atlanta-Hartsfield-Jackson.Intl.AP.722190_TMY3.epw, !- Url
  F0AA8FA7;                               !- Checksum

OS:BuildingUnit,
  {d347eaf6-3c89-4c10-b7fe-ee45bbb95e75}, !- Handle
  EPWWeatherInfo,                         !- Name
  ,                                       !- Rendering Color
  Residential;                            !- Building Unit Type

OS:AdditionalProperties,
  {883219ce-d58f-4e98-84e6-4cff0fe807a3}, !- Handle
  {d347eaf6-3c89-4c10-b7fe-ee45bbb95e75}, !- Object Name
  EPWHeaderCity,                          !- Feature Name 1
  String,                                 !- Feature Data Type 1
  Atlanta Hartsfield Intl Ap,             !- Feature Value 1
  EPWHeaderState,                         !- Feature Name 2
  String,                                 !- Feature Data Type 2
  GA,                                     !- Feature Value 2
  EPWHeaderCountry,                       !- Feature Name 3
  String,                                 !- Feature Data Type 3
  USA,                                    !- Feature Value 3
  EPWHeaderDataSource,                    !- Feature Name 4
  String,                                 !- Feature Data Type 4
  TMY3,                                   !- Feature Value 4
  EPWHeaderStation,                       !- Feature Name 5
  String,                                 !- Feature Data Type 5
  722190,                                 !- Feature Value 5
  EPWHeaderLatitude,                      !- Feature Name 6
  Double,                                 !- Feature Data Type 6
  33.630000000000003,                     !- Feature Value 6
  EPWHeaderLongitude,                     !- Feature Name 7
  Double,                                 !- Feature Data Type 7
  -84.430000000000007,                    !- Feature Value 7
  EPWHeaderTimezone,                      !- Feature Name 8
  Double,                                 !- Feature Data Type 8
  -5,                                     !- Feature Value 8
  EPWHeaderAltitude,                      !- Feature Name 9
  Double,                                 !- Feature Data Type 9
  1010.498687664042,                      !- Feature Value 9
  EPWHeaderLocalPressure,                 !- Feature Name 10
  Double,                                 !- Feature Data Type 10
  0.96349656938889539,                    !- Feature Value 10
  EPWDataAnnualAvgDrybulb,                !- Feature Name 11
  Double,                                 !- Feature Data Type 11
  61.975219178082227,                     !- Feature Value 11
  EPWDataAnnualMinDrybulb,                !- Feature Name 12
  Double,                                 !- Feature Data Type 12
  8.9599999999999973,                     !- Feature Value 12
  EPWDataAnnualMaxDrybulb,                !- Feature Name 13
  Double,                                 !- Feature Data Type 13
  98.060000000000002,                     !- Feature Value 13
  EPWDataCDD50F,                          !- Feature Name 14
  Double,                                 !- Feature Data Type 14
  5167.4549999999999,                     !- Feature Value 14
  EPWDataCDD65F,                          !- Feature Name 15
  Double,                                 !- Feature Data Type 15
  1722.3449999999996,                     !- Feature Value 15
  EPWDataHDD50F,                          !- Feature Name 16
  Double,                                 !- Feature Data Type 16
  796.49999999999966,                     !- Feature Value 16
  EPWDataHDD65F,                          !- Feature Name 17
  Double,                                 !- Feature Data Type 17
  2826.3900000000008,                     !- Feature Value 17
  EPWDataAnnualAvgWindspeed,              !- Feature Name 18
  Double,                                 !- Feature Data Type 18
  4.0382762557073244,                     !- Feature Value 18
  EPWDataMonthlyAvgDrybulbs,              !- Feature Name 19
  String,                                 !- Feature Data Type 19
  39.14217741935483&#4446.29312500000001&#4456.77129032258064&#4462.98849999999998&#4469.51064516129031&#4476.63525000000004&#4478.91685483870964&#4479.78104838709672&#4472.54099999999995&#4460.83895161290323&#4453.48324999999999&#4445.85540322580647, !- Feature Value 19
  EPWDataGroundMonthlyTemps,              !- Feature Name 20
  String,                                 !- Feature Data Type 20
  54.677026693263485&#4451.56886666200381&#4451.319954060175576&#4452.794934810798&#4458.716160600660885&#4464.60980280887844&#4469.7192756221221&#4472.95600098438916&#4473.23097858198247&#4470.59844651906309&#4465.61926826240398&#4459.90641899190797, !- Feature Value 20
  EPWDataWSF,                             !- Feature Name 21
  Double,                                 !- Feature Data Type 21
  0.46000000000000002,                    !- Feature Value 21
  EPWDataMonthlyAvgDailyHighDrybulbs,     !- Feature Name 22
  String,                                 !- Feature Data Type 22
  47.23032258064516&#4457.83642857142857&#4466.85032258064516&#4474.78&#4480.28064516129032&#4488.19600000000001&#4489.07741935483871&#4489.20516129032258&#4481.518&#4471.15870967741935&#4465.69&#4455.800645161290326, !- Feature Value 22
  EPWDataMonthlyAvgDailyLowDrybulbs,      !- Feature Name 23
  String,                                 !- Feature Data Type 23
  31.065161290322582&#4435.863571428571426&#4446.69032258064516&#4451.236000000000004&#4459.22064516129032&#4465.924&#4469.73612903225808&#4472.19806451612905&#4464.46600000000001&#4450.88258064516128&#4442.818&#4437.09806451612903, !- Feature Value 23
  EPWDesignHeatingDrybulb,                !- Feature Name 24
  Double,                                 !- Feature Data Type 24
  25.699999999999999,                     !- Feature Value 24
  EPWDesignHeatingWindspeed,              !- Feature Name 25
  Double,                                 !- Feature Data Type 25
  10.699999999999999,                     !- Feature Value 25
  EPWDesignCoolingDrybulb,                !- Feature Name 26
  Double,                                 !- Feature Data Type 26
  91.400000000000006,                     !- Feature Value 26
  EPWDesignCoolingWetbulb,                !- Feature Name 27
  Double,                                 !- Feature Data Type 27
  73.939999999999998,                     !- Feature Value 27
  EPWDesignCoolingHumidityRatio,          !- Feature Name 28
  Double,                                 !- Feature Data Type 28
  0.014532714185157248,                   !- Feature Value 28
  EPWDesignCoolingWindspeed,              !- Feature Name 29
  Double,                                 !- Feature Data Type 29
  4,                                      !- Feature Value 29
  EPWDesignDailyTemperatureRange,         !- Feature Name 30
  Double,                                 !- Feature Data Type 30
  17.100000000000001,                     !- Feature Value 30
  EPWDesignDehumidDrybulb,                !- Feature Name 31
  Double,                                 !- Feature Data Type 31
  79.340000000000003,                     !- Feature Value 31
  EPWDesignDehumidHumidityRatio,          !- Feature Name 32
  Double,                                 !- Feature Data Type 32
  0.017860837341798077,                   !- Feature Value 32
  EPWDesignCoolingDirectNormal,           !- Feature Name 33
  Double,                                 !- Feature Data Type 33
  908,                                    !- Feature Value 33
  EPWDesignCoolingDiffuseHorizontal,      !- Feature Name 34
  Double,                                 !- Feature Data Type 34
  120;                                    !- Feature Value 34

OS:YearDescription,
  {afd50618-3442-4ce2-aa38-7afc935b986d}, !- Handle
  ,                                       !- Calendar Year
  Monday;                                 !- Day of Week for Start Day

OS:ClimateZones,
  {1f4280e9-4816-4fca-8258-417c4c8168ee}, !- Handle
  ,                                       !- Active Institution
  ,                                       !- Active Year
  ,                                       !- Climate Zone Institution Name 1
  ,                                       !- Climate Zone Document Name 1
  ,                                       !- Climate Zone Document Year 1
  ,                                       !- Climate Zone Value 1
  Building America,                       !- Climate Zone Institution Name 2
  ,                                       !- Climate Zone Document Name 2
  0,                                      !- Climate Zone Document Year 2
  Mixed-Humid;                            !- Climate Zone Value 2

OS:Site:WaterMainsTemperature,
  {24e62f1f-2b8b-4ca9-964b-638734fac809}, !- Handle
  Correlation,                            !- Calculation Method
  ,                                       !- Temperature Schedule Name
  16.652899543379,                        !- Annual Average Outdoor Air Temperature {C}
  22.5771505376344;                       !- Maximum Difference In Monthly Average Outdoor Air Temperatures {deltaC}

OS:RunPeriodControl:DaylightSavingTime,
  {078c90df-1d80-49fc-9130-4f8413dafe60}, !- Handle
  4/7,                                    !- Start Date
  10/26;                                  !- End Date

OS:Site:GroundTemperature:Deep,
  {42b3b7bd-5ff1-4323-af8d-617bbe420087}, !- Handle
  16.652899543379,                        !- January Deep Ground Temperature {C}
  16.652899543379,                        !- February Deep Ground Temperature {C}
  16.652899543379,                        !- March Deep Ground Temperature {C}
  16.652899543379,                        !- April Deep Ground Temperature {C}
  16.652899543379,                        !- May Deep Ground Temperature {C}
  16.652899543379,                        !- June Deep Ground Temperature {C}
  16.652899543379,                        !- July Deep Ground Temperature {C}
  16.652899543379,                        !- August Deep Ground Temperature {C}
  16.652899543379,                        !- September Deep Ground Temperature {C}
  16.652899543379,                        !- October Deep Ground Temperature {C}
  16.652899543379,                        !- November Deep Ground Temperature {C}
  16.652899543379;                        !- December Deep Ground Temperature {C}

OS:ThermalZone,
  {7bbc3c28-0d75-44d5-af7d-db05c1c97322}, !- Handle
  living zone,                            !- Name
  ,                                       !- Multiplier
  ,                                       !- Ceiling Height {m}
  ,                                       !- Volume {m3}
  ,                                       !- Floor Area {m2}
  ,                                       !- Zone Inside Convection Algorithm
  ,                                       !- Zone Outside Convection Algorithm
  ,                                       !- Zone Conditioning Equipment List Name
  {3696b5e0-719a-4514-9ce2-c73cc7796c6e}, !- Zone Air Inlet Port List
  {6587a4ca-d104-488e-b559-d523a0f10dcd}, !- Zone Air Exhaust Port List
  {6f7ec622-c04c-4de9-80e1-6c3eca11f5ef}, !- Zone Air Node Name
  {063675ce-6285-4580-a078-764e09e2176b}, !- Zone Return Air Port List
  ,                                       !- Primary Daylighting Control Name
  ,                                       !- Fraction of Zone Controlled by Primary Daylighting Control
  ,                                       !- Secondary Daylighting Control Name
  ,                                       !- Fraction of Zone Controlled by Secondary Daylighting Control
  ,                                       !- Illuminance Map Name
  ,                                       !- Group Rendering Name
  ,                                       !- Thermostat Name
  No;                                     !- Use Ideal Air Loads

OS:Node,
  {ebfd4afe-5eb7-4186-ae20-201ba66977fe}, !- Handle
  Node 1,                                 !- Name
  {6f7ec622-c04c-4de9-80e1-6c3eca11f5ef}, !- Inlet Port
  ;                                       !- Outlet Port

OS:Connection,
  {6f7ec622-c04c-4de9-80e1-6c3eca11f5ef}, !- Handle
  {d18637a0-8eb0-4de7-81b7-4dcc7cb8e56d}, !- Name
  {7bbc3c28-0d75-44d5-af7d-db05c1c97322}, !- Source Object
  11,                                     !- Outlet Port
  {ebfd4afe-5eb7-4186-ae20-201ba66977fe}, !- Target Object
  2;                                      !- Inlet Port

OS:PortList,
  {3696b5e0-719a-4514-9ce2-c73cc7796c6e}, !- Handle
  {b693c9cc-6e5d-47d3-815b-e911014857ee}, !- Name
  {7bbc3c28-0d75-44d5-af7d-db05c1c97322}; !- HVAC Component

OS:PortList,
  {6587a4ca-d104-488e-b559-d523a0f10dcd}, !- Handle
  {18cf06bf-3d50-4af1-9812-e23d3827fdec}, !- Name
  {7bbc3c28-0d75-44d5-af7d-db05c1c97322}; !- HVAC Component

OS:PortList,
  {063675ce-6285-4580-a078-764e09e2176b}, !- Handle
  {0e9909f3-adc9-4c96-9cd0-aa249c4d28ba}, !- Name
  {7bbc3c28-0d75-44d5-af7d-db05c1c97322}; !- HVAC Component

OS:Sizing:Zone,
  {28b648f8-780d-4b2c-bd35-b911940277dd}, !- Handle
  {7bbc3c28-0d75-44d5-af7d-db05c1c97322}, !- Zone or ZoneList Name
  SupplyAirTemperature,                   !- Zone Cooling Design Supply Air Temperature Input Method
  14,                                     !- Zone Cooling Design Supply Air Temperature {C}
  11.11,                                  !- Zone Cooling Design Supply Air Temperature Difference {deltaC}
  SupplyAirTemperature,                   !- Zone Heating Design Supply Air Temperature Input Method
  40,                                     !- Zone Heating Design Supply Air Temperature {C}
  11.11,                                  !- Zone Heating Design Supply Air Temperature Difference {deltaC}
  0.0085,                                 !- Zone Cooling Design Supply Air Humidity Ratio {kg-H2O/kg-air}
  0.008,                                  !- Zone Heating Design Supply Air Humidity Ratio {kg-H2O/kg-air}
  ,                                       !- Zone Heating Sizing Factor
  ,                                       !- Zone Cooling Sizing Factor
  DesignDay,                              !- Cooling Design Air Flow Method
  ,                                       !- Cooling Design Air Flow Rate {m3/s}
  ,                                       !- Cooling Minimum Air Flow per Zone Floor Area {m3/s-m2}
  ,                                       !- Cooling Minimum Air Flow {m3/s}
  ,                                       !- Cooling Minimum Air Flow Fraction
  DesignDay,                              !- Heating Design Air Flow Method
  ,                                       !- Heating Design Air Flow Rate {m3/s}
  ,                                       !- Heating Maximum Air Flow per Zone Floor Area {m3/s-m2}
  ,                                       !- Heating Maximum Air Flow {m3/s}
  ,                                       !- Heating Maximum Air Flow Fraction
  ,                                       !- Design Zone Air Distribution Effectiveness in Cooling Mode
  ,                                       !- Design Zone Air Distribution Effectiveness in Heating Mode
  No,                                     !- Account for Dedicated Outdoor Air System
  NeutralSupplyAir,                       !- Dedicated Outdoor Air System Control Strategy
  autosize,                               !- Dedicated Outdoor Air Low Setpoint Temperature for Design {C}
  autosize;                               !- Dedicated Outdoor Air High Setpoint Temperature for Design {C}

OS:ZoneHVAC:EquipmentList,
  {fec637e7-bcac-4f2d-ba55-ccf9f8c9875d}, !- Handle
  Zone HVAC Equipment List 1,             !- Name
  {7bbc3c28-0d75-44d5-af7d-db05c1c97322}; !- Thermal Zone

OS:Space,
  {ede05e0e-22f7-4a69-b973-35fde5e979f8}, !- Handle
  living space,                           !- Name
  {97a6c1eb-b90d-4a45-ab9b-a0957ae0d532}, !- Space Type Name
  ,                                       !- Default Construction Set Name
  ,                                       !- Default Schedule Set Name
  -0,                                     !- Direction of Relative North {deg}
  0,                                      !- X Origin {m}
  0,                                      !- Y Origin {m}
  0,                                      !- Z Origin {m}
  ,                                       !- Building Story Name
  {7bbc3c28-0d75-44d5-af7d-db05c1c97322}, !- Thermal Zone Name
  ,                                       !- Part of Total Floor Area
  ,                                       !- Design Specification Outdoor Air Object Name
  {b6a77c2d-d76f-41f1-af20-70d50151415f}; !- Building Unit Name

OS:Surface,
  {d83b9b24-a669-47b3-8f2b-57b12170d2da}, !- Handle
  Surface 1,                              !- Name
  Floor,                                  !- Surface Type
  {2fc8ff99-34b1-4d97-a339-98b7645c11b0}, !- Construction Name
  {ede05e0e-22f7-4a69-b973-35fde5e979f8}, !- Space Name
  Foundation,                             !- Outside Boundary Condition
  {ac85754f-94f9-4d75-847d-5c096f231b71}, !- Outside Boundary Condition Object
  NoSun,                                  !- Sun Exposure
  NoWind,                                 !- Wind Exposure
  ,                                       !- View Factor to Ground
  ,                                       !- Number of Vertices
  0, 0, 0,                                !- X,Y,Z Vertex 1 {m}
  0, 7.01040000037894, 0,                 !- X,Y,Z Vertex 2 {m}
  11.2775999993904, 7.01040000037894, 0,  !- X,Y,Z Vertex 3 {m}
  11.2775999993904, 0, 0;                 !- X,Y,Z Vertex 4 {m}

OS:Surface,
  {b70ca96d-e1b7-4758-9cf9-5548113eedcf}, !- Handle
  Surface 2,                              !- Name
  Wall,                                   !- Surface Type
  {ab8c712a-0b1f-4c2b-b0f9-1190cd6a0f0b}, !- Construction Name
  {ede05e0e-22f7-4a69-b973-35fde5e979f8}, !- Space Name
  Outdoors,                               !- Outside Boundary Condition
  ,                                       !- Outside Boundary Condition Object
  SunExposed,                             !- Sun Exposure
  WindExposed,                            !- Wind Exposure
  ,                                       !- View Factor to Ground
  ,                                       !- Number of Vertices
  0, 7.01040000037894, 2.4384,            !- X,Y,Z Vertex 1 {m}
  0, 7.01040000037894, 0,                 !- X,Y,Z Vertex 2 {m}
  0, 0, 0,                                !- X,Y,Z Vertex 3 {m}
  0, 0, 2.4384;                           !- X,Y,Z Vertex 4 {m}

OS:Surface,
  {cff57c81-a0ae-4875-aa11-418005564c29}, !- Handle
  Surface 3,                              !- Name
  Wall,                                   !- Surface Type
  {ab8c712a-0b1f-4c2b-b0f9-1190cd6a0f0b}, !- Construction Name
  {ede05e0e-22f7-4a69-b973-35fde5e979f8}, !- Space Name
  Outdoors,                               !- Outside Boundary Condition
  ,                                       !- Outside Boundary Condition Object
  SunExposed,                             !- Sun Exposure
  WindExposed,                            !- Wind Exposure
  ,                                       !- View Factor to Ground
  ,                                       !- Number of Vertices
  11.2775999993904, 7.01040000037894, 2.4384, !- X,Y,Z Vertex 1 {m}
  11.2775999993904, 7.01040000037894, 0,  !- X,Y,Z Vertex 2 {m}
  0, 7.01040000037894, 0,                 !- X,Y,Z Vertex 3 {m}
  0, 7.01040000037894, 2.4384;            !- X,Y,Z Vertex 4 {m}

OS:Surface,
  {8dfac31e-fcdf-4d6c-b277-106a9cbb55e1}, !- Handle
  Surface 4,                              !- Name
  Wall,                                   !- Surface Type
  {ab8c712a-0b1f-4c2b-b0f9-1190cd6a0f0b}, !- Construction Name
  {ede05e0e-22f7-4a69-b973-35fde5e979f8}, !- Space Name
  Outdoors,                               !- Outside Boundary Condition
  ,                                       !- Outside Boundary Condition Object
  SunExposed,                             !- Sun Exposure
  WindExposed,                            !- Wind Exposure
  ,                                       !- View Factor to Ground
  ,                                       !- Number of Vertices
  11.2775999993904, 0, 2.4384,            !- X,Y,Z Vertex 1 {m}
  11.2775999993904, 0, 0,                 !- X,Y,Z Vertex 2 {m}
  11.2775999993904, 7.01040000037894, 0,  !- X,Y,Z Vertex 3 {m}
  11.2775999993904, 7.01040000037894, 2.4384; !- X,Y,Z Vertex 4 {m}

OS:Surface,
  {b9fb4895-918c-40b4-bae3-4b2958a13f58}, !- Handle
  Surface 5,                              !- Name
  Wall,                                   !- Surface Type
  {ab8c712a-0b1f-4c2b-b0f9-1190cd6a0f0b}, !- Construction Name
  {ede05e0e-22f7-4a69-b973-35fde5e979f8}, !- Space Name
  Outdoors,                               !- Outside Boundary Condition
  ,                                       !- Outside Boundary Condition Object
  SunExposed,                             !- Sun Exposure
  WindExposed,                            !- Wind Exposure
  ,                                       !- View Factor to Ground
  ,                                       !- Number of Vertices
  11.2775999993904, 0, 0,                 !- X,Y,Z Vertex 1 {m}
  11.2775999993904, 0, 2.4384,            !- X,Y,Z Vertex 2 {m}
  1.04865714285714, 0, 2.4384,            !- X,Y,Z Vertex 3 {m}
  1.04865714285714, 0, 0;                 !- X,Y,Z Vertex 4 {m}

OS:Surface,
  {5850e7fe-6291-4ec6-af29-06f0408dd92d}, !- Handle
  Surface 6,                              !- Name
  RoofCeiling,                            !- Surface Type
  {52bb73ce-0238-486d-b32c-8351c4dadd04}, !- Construction Name
  {ede05e0e-22f7-4a69-b973-35fde5e979f8}, !- Space Name
  Surface,                                !- Outside Boundary Condition
  {7c462b6b-5ca5-493a-aaa2-327a65f9cc0e}, !- Outside Boundary Condition Object
  NoSun,                                  !- Sun Exposure
  NoWind,                                 !- Wind Exposure
  ,                                       !- View Factor to Ground
  ,                                       !- Number of Vertices
  11.2775999993904, 0, 2.4384,            !- X,Y,Z Vertex 1 {m}
  11.2775999993904, 7.01040000037894, 2.4384, !- X,Y,Z Vertex 2 {m}
  0, 7.01040000037894, 2.4384,            !- X,Y,Z Vertex 3 {m}
  0, 0, 2.4384;                           !- X,Y,Z Vertex 4 {m}

OS:SpaceType,
  {97a6c1eb-b90d-4a45-ab9b-a0957ae0d532}, !- Handle
  Space Type 1,                           !- Name
  ,                                       !- Default Construction Set Name
  ,                                       !- Default Schedule Set Name
  ,                                       !- Group Rendering Name
  ,                                       !- Design Specification Outdoor Air Object Name
  ,                                       !- Standards Building Type
  living;                                 !- Standards Space Type

OS:Surface,
  {7c462b6b-5ca5-493a-aaa2-327a65f9cc0e}, !- Handle
  Surface 7,                              !- Name
  Floor,                                  !- Surface Type
  {c5347dd1-a8b0-417b-9ead-c33a0b821e85}, !- Construction Name
  {ec4e8982-17b5-42ad-9cd0-5be7356aa11b}, !- Space Name
  Surface,                                !- Outside Boundary Condition
  {5850e7fe-6291-4ec6-af29-06f0408dd92d}, !- Outside Boundary Condition Object
  NoSun,                                  !- Sun Exposure
  NoWind,                                 !- Wind Exposure
  ,                                       !- View Factor to Ground
  ,                                       !- Number of Vertices
  0, 7.01040000037894, 0,                 !- X,Y,Z Vertex 1 {m}
  11.2775999993904, 7.01040000037894, 0,  !- X,Y,Z Vertex 2 {m}
  11.2775999993904, 0, 0,                 !- X,Y,Z Vertex 3 {m}
  0, 0, 0;                                !- X,Y,Z Vertex 4 {m}

OS:Surface,
  {a563a6bf-55e3-4cbe-8147-3128dab09540}, !- Handle
  Surface 8,                              !- Name
  RoofCeiling,                            !- Surface Type
  {72b17c7e-c685-4426-b11d-58d0d6a4082d}, !- Construction Name
  {ec4e8982-17b5-42ad-9cd0-5be7356aa11b}, !- Space Name
  Outdoors,                               !- Outside Boundary Condition
  ,                                       !- Outside Boundary Condition Object
  SunExposed,                             !- Sun Exposure
  WindExposed,                            !- Wind Exposure
  ,                                       !- View Factor to Ground