!- NOTE: Auto-generated from /test/osw_files/SFD_HVACSizing_Load_1story_S_UA_Vented_Atlanta_ExtFinDark.osw

OS:Version,
  {e1e466a7-0cdb-452c-ad38-27e1f5ab0c52}, !- Handle
  2.6.0;                                  !- Version Identifier

OS:Building,
  {1024b1b0-2cf2-454a-ab90-2736ecfe765b}, !- Handle
  Building 1,                             !- Name
  ,                                       !- Building Sector Type
  22.5,                                   !- North Axis {deg}
  ,                                       !- Nominal Floor to Floor Height {m}
  ,                                       !- Space Type Name
  ,                                       !- Default Construction Set Name
  ,                                       !- Default Schedule Set Name
  1,                                      !- Standards Number of Stories
  1,                                      !- Standards Number of Above Ground Stories
  singlefamilydetached,                   !- Standards Building Type
  1;                                      !- Standards Number of Living Units

OS:Facility,
  {01c6d9bc-f678-4f83-878d-9dcd2eef4872}; !- Handle

OS:Site,
  {ca43878e-3c34-4958-8a1b-79fed604b49f}, !- Handle
  Atlanta Hartsfield Intl Ap_GA_USA,      !- Name
  33.63,                                  !- Latitude {deg}
  -84.43,                                 !- Longitude {deg}
  -5,                                     !- Time Zone {hr}
  308,                                    !- Elevation {m}
  Suburbs;                                !- Terrain

OS:SimulationControl,
  {f8f71426-6434-4eeb-89dc-d202f128c1fa}, !- Handle
  ,                                       !- Do Zone Sizing Calculation
  ,                                       !- Do System Sizing Calculation
  ,                                       !- Do Plant Sizing Calculation
  No;                                     !- Run Simulation for Sizing Periods

OS:Sizing:Parameters,
  {96c19406-27b3-4534-9815-cc6cc6fa8540}, !- Handle
  1.25,                                   !- Heating Sizing Factor
  1.15;                                   !- Cooling Sizing Factor

OS:Timestep,
  {151dc603-17f8-4328-bffa-e4715814fda6}, !- Handle
  6;                                      !- Number of Timesteps per Hour

OS:ShadowCalculation,
  {28a1756c-9363-44bf-972a-f74bc6aa3cc5}, !- Handle
  20,                                     !- Calculation Frequency
  200;                                    !- Maximum Figures in Shadow Overlap Calculations

OS:HeatBalanceAlgorithm,
  {ba42915c-972c-4b89-b088-f0f602553a86}, !- Handle
  ConductionTransferFunction,             !- Algorithm
  200;                                    !- Surface Temperature Upper Limit {C}

OS:RunPeriod,
  {e769b62e-b15f-4372-b62c-14a773281a3c}, !- Handle
  Run Period 1,                           !- Name
  1,                                      !- Begin Month
  1,                                      !- Begin Day of Month
  12,                                     !- End Month
  31,                                     !- End Day of Month
  ,                                       !- Use Weather File Holidays and Special Days
  ,                                       !- Use Weather File Daylight Saving Period
  ,                                       !- Apply Weekend Holiday Rule
  ,                                       !- Use Weather File Rain Indicators
  ,                                       !- Use Weather File Snow Indicators
  ;                                       !- Number of Times Runperiod to be Repeated

OS:LifeCycleCost:Parameters,
  {83c6d9a4-fdab-494c-90e3-df58883a069f}, !- Handle
  ,                                       !- Analysis Type
  ,                                       !- Discounting Convention
  ,                                       !- Inflation Approach
  ,                                       !- Real Discount Rate
  ,                                       !- Nominal Discount Rate
  ,                                       !- Inflation
  ,                                       !- Base Date Month
  ,                                       !- Base Date Year
  ,                                       !- Service Date Month
  ,                                       !- Service Date Year
  ;                                       !- Length of Study Period in Years

OS:SurfaceConvectionAlgorithm:Outside,
  {74b69d87-bb2f-45c1-9bfa-5b41532d2218}, !- Handle
  DOE-2;                                  !- Algorithm

OS:SurfaceConvectionAlgorithm:Inside,
  {7337ca22-3076-4458-844d-629c92c2f94e}, !- Handle
  TARP;                                   !- Algorithm

OS:ZoneCapacitanceMultiplier:ResearchSpecial,
  {bfe8ba9d-b037-472f-9758-ddd304c576f7}, !- Handle
  ,                                       !- Temperature Capacity Multiplier
  15,                                     !- Humidity Capacity Multiplier
  ;                                       !- Carbon Dioxide Capacity Multiplier

OS:WeatherFile,
  {4830485e-92fa-4a61-b7c0-0780d4d04eb6}, !- Handle
  Atlanta Hartsfield Intl Ap,             !- City
  GA,                                     !- State Province Region
  USA,                                    !- Country
  TMY3,                                   !- Data Source
  722190,                                 !- WMO Number
  33.63,                                  !- Latitude {deg}
  -84.43,                                 !- Longitude {deg}
  -5,                                     !- Time Zone {hr}
  308,                                    !- Elevation {m}
  file:../tests/USA_GA_Atlanta-Hartsfield-Jackson.Intl.AP.722190_TMY3.epw, !- Url
  F0AA8FA7;                               !- Checksum

OS:BuildingUnit,
  {cba95392-3415-4a6a-a05d-1ddbe360bf72}, !- Handle
  EPWWeatherInfo,                         !- Name
  ,                                       !- Rendering Color
  Residential;                            !- Building Unit Type

OS:AdditionalProperties,
  {df78761f-d659-4804-a0ee-16c8c5a0c038}, !- Handle
  {cba95392-3415-4a6a-a05d-1ddbe360bf72}, !- Object Name
  EPWHeaderCity,                          !- Feature Name 1
  String,                                 !- Feature Data Type 1
  Atlanta Hartsfield Intl Ap,             !- Feature Value 1
  EPWHeaderState,                         !- Feature Name 2
  String,                                 !- Feature Data Type 2
  GA,                                     !- Feature Value 2
  EPWHeaderCountry,                       !- Feature Name 3
  String,                                 !- Feature Data Type 3
  USA,                                    !- Feature Value 3
  EPWHeaderDataSource,                    !- Feature Name 4
  String,                                 !- Feature Data Type 4
  TMY3,                                   !- Feature Value 4
  EPWHeaderStation,                       !- Feature Name 5
  String,                                 !- Feature Data Type 5
  722190,                                 !- Feature Value 5
  EPWHeaderLatitude,                      !- Feature Name 6
  Double,                                 !- Feature Data Type 6
  33.630000000000003,                     !- Feature Value 6
  EPWHeaderLongitude,                     !- Feature Name 7
  Double,                                 !- Feature Data Type 7
  -84.430000000000007,                    !- Feature Value 7
  EPWHeaderTimezone,                      !- Feature Name 8
  Double,                                 !- Feature Data Type 8
  -5,                                     !- Feature Value 8
  EPWHeaderAltitude,                      !- Feature Name 9
  Double,                                 !- Feature Data Type 9
  1010.498687664042,                      !- Feature Value 9
  EPWHeaderLocalPressure,                 !- Feature Name 10
  Double,                                 !- Feature Data Type 10
  0.96349656938889539,                    !- Feature Value 10
  EPWHeaderRecordsPerHour,                !- Feature Name 11
  Double,                                 !- Feature Data Type 11
  1,                                      !- Feature Value 11
  EPWDataAnnualAvgDrybulb,                !- Feature Name 12
  Double,                                 !- Feature Data Type 12
  61.975219178082227,                     !- Feature Value 12
  EPWDataAnnualMinDrybulb,                !- Feature Name 13
  Double,                                 !- Feature Data Type 13
  8.9599999999999973,                     !- Feature Value 13
  EPWDataAnnualMaxDrybulb,                !- Feature Name 14
  Double,                                 !- Feature Data Type 14
  98.060000000000002,                     !- Feature Value 14
  EPWDataCDD50F,                          !- Feature Name 15
  Double,                                 !- Feature Data Type 15
  5167.4549999999999,                     !- Feature Value 15
  EPWDataCDD65F,                          !- Feature Name 16
  Double,                                 !- Feature Data Type 16
  1722.3449999999996,                     !- Feature Value 16
  EPWDataHDD50F,                          !- Feature Name 17
  Double,                                 !- Feature Data Type 17
  796.49999999999966,                     !- Feature Value 17
  EPWDataHDD65F,                          !- Feature Name 18
  Double,                                 !- Feature Data Type 18
  2826.3900000000008,                     !- Feature Value 18
  EPWDataAnnualAvgWindspeed,              !- Feature Name 19
  Double,                                 !- Feature Data Type 19
  4.0382762557073244,                     !- Feature Value 19
  EPWDataMonthlyAvgDrybulbs,              !- Feature Name 20
  String,                                 !- Feature Data Type 20
  39.14217741935483&#4446.29312500000001&#4456.77129032258064&#4462.98849999999998&#4469.51064516129031&#4476.63525000000004&#4478.91685483870964&#4479.78104838709672&#4472.54099999999995&#4460.83895161290323&#4453.48324999999999&#4445.85540322580647, !- Feature Value 20
  EPWDataGroundMonthlyTemps,              !- Feature Name 21
  String,                                 !- Feature Data Type 21
  54.677026693263485&#4451.56886666200381&#4451.319954060175576&#4452.794934810798&#4458.716160600660885&#4464.60980280887844&#4469.7192756221221&#4472.95600098438916&#4473.23097858198247&#4470.59844651906309&#4465.61926826240398&#4459.90641899190797, !- Feature Value 21
  EPWDataWSF,                             !- Feature Name 22
  Double,                                 !- Feature Data Type 22
  0.46000000000000002,                    !- Feature Value 22
  EPWDataMonthlyAvgDailyHighDrybulbs,     !- Feature Name 23
  String,                                 !- Feature Data Type 23
  47.23032258064516&#4457.83642857142857&#4466.85032258064516&#4474.78&#4480.28064516129032&#4488.19600000000001&#4489.07741935483871&#4489.20516129032258&#4481.518&#4471.15870967741935&#4465.69&#4455.800645161290326, !- Feature Value 23
  EPWDataMonthlyAvgDailyLowDrybulbs,      !- Feature Name 24
  String,                                 !- Feature Data Type 24
  31.065161290322582&#4435.863571428571426&#4446.69032258064516&#4451.236000000000004&#4459.22064516129032&#4465.924&#4469.73612903225808&#4472.19806451612905&#4464.46600000000001&#4450.88258064516128&#4442.818&#4437.09806451612903, !- Feature Value 24
  EPWDesignHeatingDrybulb,                !- Feature Name 25
  Double,                                 !- Feature Data Type 25
  25.699999999999999,                     !- Feature Value 25
  EPWDesignHeatingWindspeed,              !- Feature Name 26
  Double,                                 !- Feature Data Type 26
  10.699999999999999,                     !- Feature Value 26
  EPWDesignCoolingDrybulb,                !- Feature Name 27
  Double,                                 !- Feature Data Type 27
  91.400000000000006,                     !- Feature Value 27
  EPWDesignCoolingWetbulb,                !- Feature Name 28
  Double,                                 !- Feature Data Type 28
  73.939999999999998,                     !- Feature Value 28
  EPWDesignCoolingHumidityRatio,          !- Feature Name 29
  Double,                                 !- Feature Data Type 29
  0.014532714185157248,                   !- Feature Value 29
  EPWDesignCoolingWindspeed,              !- Feature Name 30
  Double,                                 !- Feature Data Type 30
  4,                                      !- Feature Value 30
  EPWDesignDailyTemperatureRange,         !- Feature Name 31
  Double,                                 !- Feature Data Type 31
  17.100000000000001,                     !- Feature Value 31
  EPWDesignDehumidDrybulb,                !- Feature Name 32
  Double,                                 !- Feature Data Type 32
  79.340000000000003,                     !- Feature Value 32
  EPWDesignDehumidHumidityRatio,          !- Feature Name 33
  Double,                                 !- Feature Data Type 33
  0.017860837341798077,                   !- Feature Value 33
  EPWDesignCoolingDirectNormal,           !- Feature Name 34
  Double,                                 !- Feature Data Type 34
  908,                                    !- Feature Value 34
  EPWDesignCoolingDiffuseHorizontal,      !- Feature Name 35
  Double,                                 !- Feature Data Type 35
  120;                                    !- Feature Value 35

OS:YearDescription,
  {6351461a-d7c8-4194-a060-4a79e0ac5f86}, !- Handle
  ,                                       !- Calendar Year
  Monday;                                 !- Day of Week for Start Day

OS:ClimateZones,
  {b89b2687-7f9f-45ca-a95d-0490e6f71e43}, !- Handle
  ,                                       !- Active Institution
  ,                                       !- Active Year
  ,                                       !- Climate Zone Institution Name 1
  ,                                       !- Climate Zone Document Name 1
  ,                                       !- Climate Zone Document Year 1
  ,                                       !- Climate Zone Value 1
  Building America,                       !- Climate Zone Institution Name 2
  ,                                       !- Climate Zone Document Name 2
  0,                                      !- Climate Zone Document Year 2
  Mixed-Humid;                            !- Climate Zone Value 2

OS:Site:WaterMainsTemperature,
  {3a88014e-f50c-44fd-b20c-cc1b3b2cd1e0}, !- Handle
  Correlation,                            !- Calculation Method
  ,                                       !- Temperature Schedule Name
  16.652899543379,                        !- Annual Average Outdoor Air Temperature {C}
  22.5771505376344;                       !- Maximum Difference In Monthly Average Outdoor Air Temperatures {deltaC}

OS:RunPeriodControl:DaylightSavingTime,
  {2e860881-80ae-414c-b092-2e801475578c}, !- Handle
  4/7,                                    !- Start Date
  10/26;                                  !- End Date

OS:Site:GroundTemperature:Deep,
  {ac08f564-b268-43ef-881a-1ae08abd5008}, !- Handle
  16.652899543379,                        !- January Deep Ground Temperature {C}
  16.652899543379,                        !- February Deep Ground Temperature {C}
  16.652899543379,                        !- March Deep Ground Temperature {C}
  16.652899543379,                        !- April Deep Ground Temperature {C}
  16.652899543379,                        !- May Deep Ground Temperature {C}
  16.652899543379,                        !- June Deep Ground Temperature {C}
  16.652899543379,                        !- July Deep Ground Temperature {C}
  16.652899543379,                        !- August Deep Ground Temperature {C}
  16.652899543379,                        !- September Deep Ground Temperature {C}
  16.652899543379,                        !- October Deep Ground Temperature {C}
  16.652899543379,                        !- November Deep Ground Temperature {C}
  16.652899543379;                        !- December Deep Ground Temperature {C}

OS:ThermalZone,
  {c6e6fd70-1395-4cb8-8965-dd7441694043}, !- Handle
  living zone,                            !- Name
  ,                                       !- Multiplier
  ,                                       !- Ceiling Height {m}
  ,                                       !- Volume {m3}
  ,                                       !- Floor Area {m2}
  ,                                       !- Zone Inside Convection Algorithm
  ,                                       !- Zone Outside Convection Algorithm
  ,                                       !- Zone Conditioning Equipment List Name
  {b3f0ee46-1344-495a-b71f-1d4e95c4f418}, !- Zone Air Inlet Port List
  {20559a7a-c59f-4938-ad2f-963f102d6b40}, !- Zone Air Exhaust Port List
  {f1e05e48-127c-410f-85fa-c089b7e0f71c}, !- Zone Air Node Name
  ,                                       !- Zone Return Air Node Name
  ,                                       !- Primary Daylighting Control Name
  ,                                       !- Fraction of Zone Controlled by Primary Daylighting Control
  ,                                       !- Secondary Daylighting Control Name
  ,                                       !- Fraction of Zone Controlled by Secondary Daylighting Control
  ,                                       !- Illuminance Map Name
  ,                                       !- Group Rendering Name
  ,                                       !- Thermostat Name
  No;                                     !- Use Ideal Air Loads

OS:Node,
  {f5e9d410-af22-452b-806c-f2f695a7f9db}, !- Handle
  Node 1,                                 !- Name
  {f1e05e48-127c-410f-85fa-c089b7e0f71c}, !- Inlet Port
  ;                                       !- Outlet Port

OS:Connection,
  {f1e05e48-127c-410f-85fa-c089b7e0f71c}, !- Handle
  {d6f63ad2-5984-4ebe-8e12-e4112bf108cd}, !- Name
  {c6e6fd70-1395-4cb8-8965-dd7441694043}, !- Source Object
  11,                                     !- Outlet Port
  {f5e9d410-af22-452b-806c-f2f695a7f9db}, !- Target Object
  2;                                      !- Inlet Port

OS:PortList,
  {b3f0ee46-1344-495a-b71f-1d4e95c4f418}, !- Handle
  {c1196b93-e1a4-4198-a5ae-a9e6cf54488f}, !- Name
  {c6e6fd70-1395-4cb8-8965-dd7441694043}; !- HVAC Component

OS:PortList,
  {20559a7a-c59f-4938-ad2f-963f102d6b40}, !- Handle
  {e8b98053-6d50-47e3-a565-8e80fb5835ed}, !- Name
  {c6e6fd70-1395-4cb8-8965-dd7441694043}; !- HVAC Component

OS:Sizing:Zone,
  {4aeb616a-930f-41bf-b9d5-9395f6eeeab5}, !- Handle
  {c6e6fd70-1395-4cb8-8965-dd7441694043}, !- Zone or ZoneList Name
  SupplyAirTemperature,                   !- Zone Cooling Design Supply Air Temperature Input Method
  14,                                     !- Zone Cooling Design Supply Air Temperature {C}
  11.11,                                  !- Zone Cooling Design Supply Air Temperature Difference {deltaC}
  SupplyAirTemperature,                   !- Zone Heating Design Supply Air Temperature Input Method
  40,                                     !- Zone Heating Design Supply Air Temperature {C}
  11.11,                                  !- Zone Heating Design Supply Air Temperature Difference {deltaC}
  0.0085,                                 !- Zone Cooling Design Supply Air Humidity Ratio {kg-H2O/kg-air}
  0.008,                                  !- Zone Heating Design Supply Air Humidity Ratio {kg-H2O/kg-air}
  ,                                       !- Zone Heating Sizing Factor
  ,                                       !- Zone Cooling Sizing Factor
  DesignDay,                              !- Cooling Design Air Flow Method
  ,                                       !- Cooling Design Air Flow Rate {m3/s}
  ,                                       !- Cooling Minimum Air Flow per Zone Floor Area {m3/s-m2}
  ,                                       !- Cooling Minimum Air Flow {m3/s}
  ,                                       !- Cooling Minimum Air Flow Fraction
  DesignDay,                              !- Heating Design Air Flow Method
  ,                                       !- Heating Design Air Flow Rate {m3/s}
  ,                                       !- Heating Maximum Air Flow per Zone Floor Area {m3/s-m2}
  ,                                       !- Heating Maximum Air Flow {m3/s}
  ,                                       !- Heating Maximum Air Flow Fraction
  ,                                       !- Design Zone Air Distribution Effectiveness in Cooling Mode
  ,                                       !- Design Zone Air Distribution Effectiveness in Heating Mode
  No,                                     !- Account for Dedicated Outdoor Air System
  NeutralSupplyAir,                       !- Dedicated Outdoor Air System Control Strategy
  autosize,                               !- Dedicated Outdoor Air Low Setpoint Temperature for Design {C}
  autosize;                               !- Dedicated Outdoor Air High Setpoint Temperature for Design {C}

OS:ZoneHVAC:EquipmentList,
  {79c8642c-5bf0-4159-9c1a-0d3e4fce737f}, !- Handle
  Zone HVAC Equipment List 1,             !- Name
  {c6e6fd70-1395-4cb8-8965-dd7441694043}; !- Thermal Zone

OS:Space,
  {d980423f-4e67-4f05-aff4-58b81d565205}, !- Handle
  living space,                           !- Name
  {a27e514e-8713-450c-88d7-7d488f3c4146}, !- Space Type Name
  ,                                       !- Default Construction Set Name
  ,                                       !- Default Schedule Set Name
  -0,                                     !- Direction of Relative North {deg}
  0,                                      !- X Origin {m}
  0,                                      !- Y Origin {m}
  0,                                      !- Z Origin {m}
  ,                                       !- Building Story Name
  {c6e6fd70-1395-4cb8-8965-dd7441694043}, !- Thermal Zone Name
  ,                                       !- Part of Total Floor Area
  ,                                       !- Design Specification Outdoor Air Object Name
  {d1dcc03d-191d-4234-8cde-36710984b269}; !- Building Unit Name

OS:Surface,
  {6b3838f2-1ade-4322-b760-421a4784e34d}, !- Handle
  Surface 1,                              !- Name
  Floor,                                  !- Surface Type
  {de7b9ebd-9ad1-4503-8267-e3785e0968b6}, !- Construction Name
  {d980423f-4e67-4f05-aff4-58b81d565205}, !- Space Name
  Foundation,                             !- Outside Boundary Condition
  {41f3653e-66fd-4be2-8bca-6e80d498a43c}, !- Outside Boundary Condition Object
  NoSun,                                  !- Sun Exposure
  NoWind,                                 !- Wind Exposure
  ,                                       !- View Factor to Ground
  ,                                       !- Number of Vertices
  0, 0, 0,                                !- X,Y,Z Vertex 1 {m}
  0, 7.01040000037894, 0,                 !- X,Y,Z Vertex 2 {m}
  11.2775999993904, 7.01040000037894, 0,  !- X,Y,Z Vertex 3 {m}
  11.2775999993904, 0, 0;                 !- X,Y,Z Vertex 4 {m}

OS:Surface,
  {bd9b7afa-6507-4f7f-ba00-2ec6e9ab0942}, !- Handle
  Surface 2,                              !- Name
  Wall,                                   !- Surface Type
  {b885da84-06f7-4407-a9a6-0e65292a58d4}, !- Construction Name
  {d980423f-4e67-4f05-aff4-58b81d565205}, !- Space Name
  Outdoors,                               !- Outside Boundary Condition
  ,                                       !- Outside Boundary Condition Object
  SunExposed,                             !- Sun Exposure
  WindExposed,                            !- Wind Exposure
  ,                                       !- View Factor to Ground
  ,                                       !- Number of Vertices
  0, 7.01040000037894, 2.4384,            !- X,Y,Z Vertex 1 {m}
  0, 7.01040000037894, 0,                 !- X,Y,Z Vertex 2 {m}
  0, 0, 0,                                !- X,Y,Z Vertex 3 {m}
  0, 0, 2.4384;                           !- X,Y,Z Vertex 4 {m}

OS:Surface,
  {8a2a64f6-4a74-4695-96fd-84704f5f3eb1}, !- Handle
  Surface 3,                              !- Name
  Wall,                                   !- Surface Type
  {b885da84-06f7-4407-a9a6-0e65292a58d4}, !- Construction Name
  {d980423f-4e67-4f05-aff4-58b81d565205}, !- Space Name
  Outdoors,                               !- Outside Boundary Condition
  ,                                       !- Outside Boundary Condition Object
  SunExposed,                             !- Sun Exposure
  WindExposed,                            !- Wind Exposure
  ,                                       !- View Factor to Ground
  ,                                       !- Number of Vertices
  11.2775999993904, 7.01040000037894, 2.4384, !- X,Y,Z Vertex 1 {m}
  11.2775999993904, 7.01040000037894, 0,  !- X,Y,Z Vertex 2 {m}
  0, 7.01040000037894, 0,                 !- X,Y,Z Vertex 3 {m}
  0, 7.01040000037894, 2.4384;            !- X,Y,Z Vertex 4 {m}

OS:Surface,
  {586c97c9-eace-4c6a-97ea-990c69a68cd5}, !- Handle
  Surface 4,                              !- Name
  Wall,                                   !- Surface Type
  {b885da84-06f7-4407-a9a6-0e65292a58d4}, !- Construction Name
  {d980423f-4e67-4f05-aff4-58b81d565205}, !- Space Name
  Outdoors,                               !- Outside Boundary Condition
  ,                                       !- Outside Boundary Condition Object
  SunExposed,                             !- Sun Exposure
  WindExposed,                            !- Wind Exposure
  ,                                       !- View Factor to Ground
  ,                                       !- Number of Vertices
  11.2775999993904, 0, 2.4384,            !- X,Y,Z Vertex 1 {m}
  11.2775999993904, 0, 0,                 !- X,Y,Z Vertex 2 {m}
  11.2775999993904, 7.01040000037894, 0,  !- X,Y,Z Vertex 3 {m}
  11.2775999993904, 7.01040000037894, 2.4384; !- X,Y,Z Vertex 4 {m}

OS:Surface,
  {4d313c19-44fe-45f6-94f5-8119728b7b97}, !- Handle
  Surface 5,                              !- Name
  Wall,                                   !- Surface Type
  {b885da84-06f7-4407-a9a6-0e65292a58d4}, !- Construction Name
  {d980423f-4e67-4f05-aff4-58b81d565205}, !- Space Name
  Outdoors,                               !- Outside Boundary Condition
  ,                                       !- Outside Boundary Condition Object
  SunExposed,                             !- Sun Exposure
  WindExposed,                            !- Wind Exposure
  ,                                       !- View Factor to Ground
  ,                                       !- Number of Vertices
  11.2775999993904, 0, 0,                 !- X,Y,Z Vertex 1 {m}
  11.2775999993904, 0, 2.4384,            !- X,Y,Z Vertex 2 {m}
  1.04865714285714, 0, 2.4384,            !- X,Y,Z Vertex 3 {m}
  1.04865714285714, 0, 0;                 !- X,Y,Z Vertex 4 {m}

OS:Surface,
  {3c01576c-2383-455e-a928-5afb9c22e37d}, !- Handle
  Surface 6,                              !- Name
  RoofCeiling,                            !- Surface Type
  {d3e515f3-68ec-4512-bc07-afea90dda98c}, !- Construction Name
  {d980423f-4e67-4f05-aff4-58b81d565205}, !- Space Name
  Surface,                                !- Outside Boundary Condition
  {2d7c3dcb-f5f4-4870-8d05-9c5b41a757ab}, !- Outside Boundary Condition Object
  NoSun,                                  !- Sun Exposure
  NoWind,                                 !- Wind Exposure
  ,                                       !- View Factor to Ground
  ,                                       !- Number of Vertices
  11.2775999993904, 0, 2.4384,            !- X,Y,Z Vertex 1 {m}
  11.2775999993904, 7.01040000037894, 2.4384, !- X,Y,Z Vertex 2 {m}
  0, 7.01040000037894, 2.4384,            !- X,Y,Z Vertex 3 {m}
  0, 0, 2.4384;                           !- X,Y,Z Vertex 4 {m}

OS:SpaceType,
  {a27e514e-8713-450c-88d7-7d488f3c4146}, !- Handle
  Space Type 1,                           !- Name
  ,                                       !- Default Construction Set Name
  ,                                       !- Default Schedule Set Name
  ,                                       !- Group Rendering Name
  ,                                       !- Design Specification Outdoor Air Object Name
  ,                                       !- Standards Building Type
  living;                                 !- Standards Space Type

OS:Surface,
  {2d7c3dcb-f5f4-4870-8d05-9c5b41a757ab}, !- Handle
  Surface 7,                              !- Name
  Floor,                                  !- Surface Type
  {f4566204-e542-483b-8c86-c3272a83bc65}, !- Construction Name
  {68f8fec8-2576-4ffe-a2f3-fc25dc63afe7}, !- Space Name
  Surface,                                !- Outside Boundary Condition
  {3c01576c-2383-455e-a928-5afb9c22e37d}, !- Outside Boundary Condition Object
  NoSun,                                  !- Sun Exposure
  NoWind,                                 !- Wind Exposure
  ,                                       !- View Factor to Ground
  ,                                       !- Number of Vertices
  0, 7.01040000037894, 0,                 !- X,Y,Z Vertex 1 {m}
  11.2775999993904, 7.01040000037894, 0,  !- X,Y,Z Vertex 2 {m}
  11.2775999993904, 0, 0,                 !- X,Y,Z Vertex 3 {m}
  0, 0, 0;                                !- X,Y,Z Vertex 4 {m}

OS:Surface,
  {64c82171-c161-4ce1-9e1f-7fd2148bc010}, !- Handle
  Surface 8,                              !- Name
  RoofCeiling,                            !- Surface Type
  {c07374e0-b5cf-49d8-9c16-33bc52a333a3}, !- Construction Name
  {68f8fec8-2576-4ffe-a2f3-fc25dc63afe7}, !- Space Name
  Outdoors,                               !- Outside Boundary Condition
  ,                                       !- Outside Boundary Condition Object
  SunExposed,                             !- Sun Exposure
  WindExposed,                            !- Wind Exposure
  ,                                       !- View Factor to Ground