!- NOTE: Auto-generated from /test/osw_files/SFD_HVACSizing_Load_2story_CS_GRG_FA_ASHP_DuctsInCS.osw

OS:Version,
  {2b542907-f381-4e5a-884d-f280a61e96be}, !- Handle
  2.7.0;                                  !- Version Identifier

OS:Building,
  {7ead0921-68b0-44b8-8aa5-06028b01a2d7}, !- Handle
  Building 1,                             !- Name
  ,                                       !- Building Sector Type
  22.5,                                   !- North Axis {deg}
  ,                                       !- Nominal Floor to Floor Height {m}
  ,                                       !- Space Type Name
  ,                                       !- Default Construction Set Name
  ,                                       !- Default Schedule Set Name
  3,                                      !- Standards Number of Stories
  3,                                      !- Standards Number of Above Ground Stories
  ,                                       !- Standards Template
  singlefamilydetached,                   !- Standards Building Type
  1;                                      !- Standards Number of Living Units

OS:Facility,
  {d0a27d60-3074-4e02-9b7c-1ef3da371422}; !- Handle

OS:Site,
  {cb11ea38-387b-4308-b345-1d633982aa85}, !- Handle
  Denver Intl Ap_CO_USA,                  !- Name
  39.83,                                  !- Latitude {deg}
  -104.65,                                !- Longitude {deg}
  -7,                                     !- Time Zone {hr}
  1650,                                   !- Elevation {m}
  Suburbs;                                !- Terrain

OS:SimulationControl,
  {c392eef1-dc87-468b-9576-2c3aee7d9f3d}, !- Handle
  ,                                       !- Do Zone Sizing Calculation
  ,                                       !- Do System Sizing Calculation
  ,                                       !- Do Plant Sizing Calculation
  No;                                     !- Run Simulation for Sizing Periods

OS:Sizing:Parameters,
  {32e06350-22c2-4881-bb91-5406a3aea876}, !- Handle
  1.25,                                   !- Heating Sizing Factor
  1.15;                                   !- Cooling Sizing Factor

OS:Timestep,
  {ee03cf0b-3e52-4993-87ea-d56c238faa47}, !- Handle
  6;                                      !- Number of Timesteps per Hour

OS:ShadowCalculation,
  {fee62d76-06a4-4048-a3c9-fd802683897a}, !- Handle
  20,                                     !- Calculation Frequency
  200;                                    !- Maximum Figures in Shadow Overlap Calculations

OS:HeatBalanceAlgorithm,
  {6ac4ad5a-70d7-4a37-863f-b5aad7ec4694}, !- Handle
  MoisturePenetrationDepthConductionTransferFunction, !- Algorithm
  200;                                    !- Surface Temperature Upper Limit {C}

OS:RunPeriod,
  {6c804784-e422-4d74-9c90-95e96133daac}, !- Handle
  Run Period 1,                           !- Name
  1,                                      !- Begin Month
  1,                                      !- Begin Day of Month
  12,                                     !- End Month
  31,                                     !- End Day of Month
  ,                                       !- Use Weather File Holidays and Special Days
  ,                                       !- Use Weather File Daylight Saving Period
  ,                                       !- Apply Weekend Holiday Rule
  ,                                       !- Use Weather File Rain Indicators
  ,                                       !- Use Weather File Snow Indicators
  ;                                       !- Number of Times Runperiod to be Repeated

OS:LifeCycleCost:Parameters,
  {cbdceb88-4f75-4af1-a7ab-fa98b33d11e4}, !- Handle
  ,                                       !- Analysis Type
  ,                                       !- Discounting Convention
  ,                                       !- Inflation Approach
  ,                                       !- Real Discount Rate
  ,                                       !- Nominal Discount Rate
  ,                                       !- Inflation
  ,                                       !- Base Date Month
  ,                                       !- Base Date Year
  ,                                       !- Service Date Month
  ,                                       !- Service Date Year
  ;                                       !- Length of Study Period in Years

OS:SurfaceConvectionAlgorithm:Outside,
  {4c2b28df-bd8e-420d-b773-4f72b5763699}, !- Handle
  DOE-2;                                  !- Algorithm

OS:SurfaceConvectionAlgorithm:Inside,
  {9a14affb-2e28-46c5-a383-6c1e097e2ced}, !- Handle
  TARP;                                   !- Algorithm

OS:ZoneCapacitanceMultiplier:ResearchSpecial,
  {c172ff20-96d3-4d85-87e0-974c08621981}, !- Handle
  ,                                       !- Temperature Capacity Multiplier
  1,                                      !- Humidity Capacity Multiplier
  ;                                       !- Carbon Dioxide Capacity Multiplier

OS:WeatherFile,
  {e19481f3-39b8-4de8-a017-98bd78f2f5ef}, !- Handle
  Denver Intl Ap,                         !- City
  CO,                                     !- State Province Region
  USA,                                    !- Country
  TMY3,                                   !- Data Source
  725650,                                 !- WMO Number
  39.83,                                  !- Latitude {deg}
  -104.65,                                !- Longitude {deg}
  -7,                                     !- Time Zone {hr}
  1650,                                   !- Elevation {m}
  file:../tests/USA_CO_Denver_Intl_AP_725650_TMY3.epw, !- Url
  E23378AA;                               !- Checksum

OS:AdditionalProperties,
  {ac62e2a1-6cb0-48b2-880e-49eb440ce725}, !- Handle
  {e19481f3-39b8-4de8-a017-98bd78f2f5ef}, !- Object Name
  EPWHeaderCity,                          !- Feature Name 1
  String,                                 !- Feature Data Type 1
  Denver Intl Ap,                         !- Feature Value 1
  EPWHeaderState,                         !- Feature Name 2
  String,                                 !- Feature Data Type 2
  CO,                                     !- Feature Value 2
  EPWHeaderCountry,                       !- Feature Name 3
  String,                                 !- Feature Data Type 3
  USA,                                    !- Feature Value 3
  EPWHeaderDataSource,                    !- Feature Name 4
  String,                                 !- Feature Data Type 4
  TMY3,                                   !- Feature Value 4
  EPWHeaderStation,                       !- Feature Name 5
  String,                                 !- Feature Data Type 5
  725650,                                 !- Feature Value 5
  EPWHeaderLatitude,                      !- Feature Name 6
  Double,                                 !- Feature Data Type 6
  39.829999999999998,                     !- Feature Value 6
  EPWHeaderLongitude,                     !- Feature Name 7
  Double,                                 !- Feature Data Type 7
  -104.65000000000001,                    !- Feature Value 7
  EPWHeaderTimezone,                      !- Feature Name 8
  Double,                                 !- Feature Data Type 8
  -7,                                     !- Feature Value 8
  EPWHeaderAltitude,                      !- Feature Name 9
  Double,                                 !- Feature Data Type 9
  5413.3858267716532,                     !- Feature Value 9
  EPWHeaderLocalPressure,                 !- Feature Name 10
  Double,                                 !- Feature Data Type 10
  0.81937567683596546,                    !- Feature Value 10
  EPWHeaderRecordsPerHour,                !- Feature Name 11
  Double,                                 !- Feature Data Type 11
  1,                                      !- Feature Value 11
  EPWDataAnnualAvgDrybulb,                !- Feature Name 12
  Double,                                 !- Feature Data Type 12
  51.575616438356228,                     !- Feature Value 12
  EPWDataAnnualMinDrybulb,                !- Feature Name 13
  Double,                                 !- Feature Data Type 13
  -2.9200000000000017,                    !- Feature Value 13
  EPWDataAnnualMaxDrybulb,                !- Feature Name 14
  Double,                                 !- Feature Data Type 14
  104,                                    !- Feature Value 14
  EPWDataCDD50F,                          !- Feature Name 15
  Double,                                 !- Feature Data Type 15
  3072.2925000000005,                     !- Feature Value 15
  EPWDataCDD65F,                          !- Feature Name 16
  Double,                                 !- Feature Data Type 16
  883.62000000000035,                     !- Feature Value 16
  EPWDataHDD50F,                          !- Feature Name 17
  Double,                                 !- Feature Data Type 17
  2497.1925000000001,                     !- Feature Value 17
  EPWDataHDD65F,                          !- Feature Name 18
  Double,                                 !- Feature Data Type 18
  5783.5200000000013,                     !- Feature Value 18
  EPWDataAnnualAvgWindspeed,              !- Feature Name 19
  Double,                                 !- Feature Data Type 19
  3.9165296803649667,                     !- Feature Value 19
  EPWDataMonthlyAvgDrybulbs,              !- Feature Name 20
  String,                                 !- Feature Data Type 20
  33.4191935483871&#4431.90142857142857&#4443.02620967741937&#4442.48624999999999&#4459.877741935483854&#4473.57574999999997&#4472.07975806451608&#4472.70008064516134&#4466.49200000000006&#4450.079112903225806&#4437.218250000000005&#4434.582177419354835, !- Feature Value 20
  EPWDataGroundMonthlyTemps,              !- Feature Name 21
  String,                                 !- Feature Data Type 21
  44.08306285945173&#4440.89570904991865&#4440.64045432632048&#4442.153016571250646&#4448.225111118704206&#4454.268919273837525&#4459.508577937551024&#4462.82777283423508&#4463.10975667174995&#4460.41014950381947&#4455.304105212311526&#4449.445696474514364, !- Feature Value 21
  EPWDataWSF,                             !- Feature Name 22
  Double,                                 !- Feature Data Type 22
  0.58999999999999997,                    !- Feature Value 22
  EPWDataMonthlyAvgDailyHighDrybulbs,     !- Feature Name 23
  String,                                 !- Feature Data Type 23
  47.41032258064516&#4446.58642857142857&#4455.15032258064517&#4453.708&#4472.80193548387098&#4488.67600000000002&#4486.1858064516129&#4485.87225806451613&#4482.082&#4463.18064516129033&#4448.73400000000001&#4448.87935483870968, !- Feature Value 23
  EPWDataMonthlyAvgDailyLowDrybulbs,      !- Feature Name 24
  String,                                 !- Feature Data Type 24
  19.347741935483874&#4419.856428571428573&#4430.316129032258065&#4431.112&#4447.41612903225806&#4457.901999999999994&#4459.063870967741934&#4460.956774193548384&#4452.352000000000004&#4438.41612903225806&#4427.002000000000002&#4423.02903225806451, !- Feature Value 24
  EPWDesignHeatingDrybulb,                !- Feature Name 25
  Double,                                 !- Feature Data Type 25
  6.8000000000000007,                     !- Feature Value 25
  EPWDesignHeatingWindspeed,              !- Feature Name 26
  Double,                                 !- Feature Data Type 26
  12,                                     !- Feature Value 26
  EPWDesignCoolingDrybulb,                !- Feature Name 27
  Double,                                 !- Feature Data Type 27
  91.760000000000005,                     !- Feature Value 27
  EPWDesignCoolingWetbulb,                !- Feature Name 28
  Double,                                 !- Feature Data Type 28
  60.079999999999998,                     !- Feature Value 28
  EPWDesignCoolingHumidityRatio,          !- Feature Name 29
  Double,                                 !- Feature Data Type 29
  0.006050392196571398,                   !- Feature Value 29
  EPWDesignCoolingWindspeed,              !- Feature Name 30
  Double,                                 !- Feature Data Type 30
  4.2000000000000002,                     !- Feature Value 30
  EPWDesignDailyTemperatureRange,         !- Feature Name 31
  Double,                                 !- Feature Data Type 31
  27.359999999999999,                     !- Feature Value 31
  EPWDesignDehumidDrybulb,                !- Feature Name 32
  Double,                                 !- Feature Data Type 32
  67.280000000000001,                     !- Feature Value 32
  EPWDesignDehumidHumidityRatio,          !- Feature Name 33
  Double,                                 !- Feature Data Type 33
  0.012295426899271008,                   !- Feature Value 33
  EPWDesignCoolingDirectNormal,           !- Feature Name 34
  Double,                                 !- Feature Data Type 34
  985,                                    !- Feature Value 34
  EPWDesignCoolingDiffuseHorizontal,      !- Feature Name 35
  Double,                                 !- Feature Data Type 35
  84;                                     !- Feature Value 35

OS:YearDescription,
  {a7a1465c-c080-4fc0-88f2-d463a14078e0}, !- Handle
  ,                                       !- Calendar Year
  Monday;                                 !- Day of Week for Start Day

OS:ClimateZones,
  {096af6ee-cc7b-436e-bed8-307f04500093}, !- Handle
  ,                                       !- Active Institution
  ,                                       !- Active Year
  ,                                       !- Climate Zone Institution Name 1
  ,                                       !- Climate Zone Document Name 1
  ,                                       !- Climate Zone Document Year 1
  ,                                       !- Climate Zone Value 1
  Building America,                       !- Climate Zone Institution Name 2
  ,                                       !- Climate Zone Document Name 2
  0,                                      !- Climate Zone Document Year 2
  Cold;                                   !- Climate Zone Value 2

OS:Site:WaterMainsTemperature,
  {fc17dc25-1f67-4b24-ae56-5a428ed7d1d4}, !- Handle
  Correlation,                            !- Calculation Method
  ,                                       !- Temperature Schedule Name
  10.8753424657535,                       !- Annual Average Outdoor Air Temperature {C}
  23.1524007936508;                       !- Maximum Difference In Monthly Average Outdoor Air Temperatures {deltaC}

OS:RunPeriodControl:DaylightSavingTime,
  {7f89ddfd-7600-4bad-b689-20997bfd997b}, !- Handle
  4/7,                                    !- Start Date
  10/26;                                  !- End Date

OS:Site:GroundTemperature:Deep,
  {9bd589b9-122c-499b-960a-afb3e0badbe0}, !- Handle
  10.8753424657535,                       !- January Deep Ground Temperature {C}
  10.8753424657535,                       !- February Deep Ground Temperature {C}
  10.8753424657535,                       !- March Deep Ground Temperature {C}
  10.8753424657535,                       !- April Deep Ground Temperature {C}
  10.8753424657535,                       !- May Deep Ground Temperature {C}
  10.8753424657535,                       !- June Deep Ground Temperature {C}
  10.8753424657535,                       !- July Deep Ground Temperature {C}
  10.8753424657535,                       !- August Deep Ground Temperature {C}
  10.8753424657535,                       !- September Deep Ground Temperature {C}
  10.8753424657535,                       !- October Deep Ground Temperature {C}
  10.8753424657535,                       !- November Deep Ground Temperature {C}
  10.8753424657535;                       !- December Deep Ground Temperature {C}

OS:ThermalZone,
  {20b95a8b-6a63-4c81-93e6-f777140f2bc8}, !- Handle
  living zone,                            !- Name
  ,                                       !- Multiplier
  ,                                       !- Ceiling Height {m}
  ,                                       !- Volume {m3}
  ,                                       !- Floor Area {m2}
  ,                                       !- Zone Inside Convection Algorithm
  ,                                       !- Zone Outside Convection Algorithm
  ,                                       !- Zone Conditioning Equipment List Name
  {a65714fc-ac7e-4881-8054-8ad834a407c8}, !- Zone Air Inlet Port List
  {95eb3cd5-bbbd-4b06-990b-a13b03e903ec}, !- Zone Air Exhaust Port List
  {b2490c05-f360-4a74-861c-d187c7352368}, !- Zone Air Node Name
  {118a3bc7-adaa-41b3-80db-25ba90732fd4}, !- Zone Return Air Port List
  ,                                       !- Primary Daylighting Control Name
  ,                                       !- Fraction of Zone Controlled by Primary Daylighting Control
  ,                                       !- Secondary Daylighting Control Name
  ,                                       !- Fraction of Zone Controlled by Secondary Daylighting Control
  ,                                       !- Illuminance Map Name
  ,                                       !- Group Rendering Name
  {7bd09fcc-cfa6-4aca-a126-608b365e46df}, !- Thermostat Name
  No;                                     !- Use Ideal Air Loads

OS:Node,
  {3d4a9c47-1ec4-4535-983e-8ed439a26acb}, !- Handle
  Node 1,                                 !- Name
  {b2490c05-f360-4a74-861c-d187c7352368}, !- Inlet Port
  ;                                       !- Outlet Port

OS:Connection,
  {b2490c05-f360-4a74-861c-d187c7352368}, !- Handle
  {31e623dd-2f7f-4714-8f75-5c61a8be9d04}, !- Name
  {20b95a8b-6a63-4c81-93e6-f777140f2bc8}, !- Source Object
  11,                                     !- Outlet Port
  {3d4a9c47-1ec4-4535-983e-8ed439a26acb}, !- Target Object
  2;                                      !- Inlet Port

OS:PortList,
  {a65714fc-ac7e-4881-8054-8ad834a407c8}, !- Handle
  {5383b16c-6b0a-45ba-81ec-df7cb095a97c}, !- Name
  {20b95a8b-6a63-4c81-93e6-f777140f2bc8}, !- HVAC Component
  {036a0a99-9dda-4873-aa40-5740eb0ac3d3}; !- Port 1

OS:PortList,
  {95eb3cd5-bbbd-4b06-990b-a13b03e903ec}, !- Handle
  {7ff13779-1b0e-4f07-a5d8-0f86a522ee46}, !- Name
  {20b95a8b-6a63-4c81-93e6-f777140f2bc8}; !- HVAC Component

OS:PortList,
  {118a3bc7-adaa-41b3-80db-25ba90732fd4}, !- Handle
  {27d34ec4-39cd-4a12-970d-78eae7ff800d}, !- Name
  {20b95a8b-6a63-4c81-93e6-f777140f2bc8}, !- HVAC Component
  {ced4772e-70b9-4b3d-9280-f0b9450f4e3a}; !- Port 1

OS:Sizing:Zone,
  {eb9ba343-7c47-457b-97bd-59870a0bb496}, !- Handle
  {20b95a8b-6a63-4c81-93e6-f777140f2bc8}, !- Zone or ZoneList Name
  SupplyAirTemperature,                   !- Zone Cooling Design Supply Air Temperature Input Method
  14,                                     !- Zone Cooling Design Supply Air Temperature {C}
  11.11,                                  !- Zone Cooling Design Supply Air Temperature Difference {deltaC}
  SupplyAirTemperature,                   !- Zone Heating Design Supply Air Temperature Input Method
  40,                                     !- Zone Heating Design Supply Air Temperature {C}
  11.11,                                  !- Zone Heating Design Supply Air Temperature Difference {deltaC}
  0.0085,                                 !- Zone Cooling Design Supply Air Humidity Ratio {kg-H2O/kg-air}
  0.008,                                  !- Zone Heating Design Supply Air Humidity Ratio {kg-H2O/kg-air}
  ,                                       !- Zone Heating Sizing Factor
  ,                                       !- Zone Cooling Sizing Factor
  DesignDay,                              !- Cooling Design Air Flow Method
  ,                                       !- Cooling Design Air Flow Rate {m3/s}
  ,                                       !- Cooling Minimum Air Flow per Zone Floor Area {m3/s-m2}
  ,                                       !- Cooling Minimum Air Flow {m3/s}
  ,                                       !- Cooling Minimum Air Flow Fraction
  DesignDay,                              !- Heating Design Air Flow Method
  ,                                       !- Heating Design Air Flow Rate {m3/s}
  ,                                       !- Heating Maximum Air Flow per Zone Floor Area {m3/s-m2}
  ,                                       !- Heating Maximum Air Flow {m3/s}
  ,                                       !- Heating Maximum Air Flow Fraction
  ,                                       !- Design Zone Air Distribution Effectiveness in Cooling Mode
  ,                                       !- Design Zone Air Distribution Effectiveness in Heating Mode
  No,                                     !- Account for Dedicated Outdoor Air System
  NeutralSupplyAir,                       !- Dedicated Outdoor Air System Control Strategy
  autosize,                               !- Dedicated Outdoor Air Low Setpoint Temperature for Design {C}
  autosize;                               !- Dedicated Outdoor Air High Setpoint Temperature for Design {C}

OS:ZoneHVAC:EquipmentList,
  {ae66500e-fe66-4180-bc94-9bd9bb8bab2b}, !- Handle
  Zone HVAC Equipment List 1,             !- Name
  {20b95a8b-6a63-4c81-93e6-f777140f2bc8}, !- Thermal Zone
  ,                                       !- Load Distribution Scheme
  {02b5768b-1db7-4098-a475-63a359407c35}, !- Zone Equipment 1
  1,                                      !- Zone Equipment Cooling Sequence 1
  1;                                      !- Zone Equipment Heating or No-Load Sequence 1

OS:ThermalZone,
  {247727b3-3279-4b6d-acac-afdfb7ca9ddf}, !- Handle
  garage zone,                            !- Name
  ,                                       !- Multiplier
  ,                                       !- Ceiling Height {m}
  ,                                       !- Volume {m3}
  ,                                       !- Floor Area {m2}
  ,                                       !- Zone Inside Convection Algorithm
  ,                                       !- Zone Outside Convection Algorithm
  ,                                       !- Zone Conditioning Equipment List Name
  {9f76d723-5abc-4ec0-982c-130259050514}, !- Zone Air Inlet Port List
  {45834615-89ac-44e4-8055-6db76de16278}, !- Zone Air Exhaust Port List
  {110adb51-1ed2-4efc-bf23-cabc58405d5d}, !- Zone Air Node Name
  {6eeb8142-c38a-477f-8c20-97300bfd426d}, !- Zone Return Air Port List
  ,                                       !- Primary Daylighting Control Name
  ,                                       !- Fraction of Zone Controlled by Primary Daylighting Control
  ,                                       !- Secondary Daylighting Control Name
  ,                                       !- Fraction of Zone Controlled by Secondary Daylighting Control
  ,                                       !- Illuminance Map Name
  ,                                       !- Group Rendering Name
  ,                                       !- Thermostat Name
  No;                                     !- Use Ideal Air Loads

OS:Node,
  {8bf0a7fc-e232-4e6a-9058-eab3282ccc70}, !- Handle
  Node 2,                                 !- Name
  {110adb51-1ed2-4efc-bf23-cabc58405d5d}, !- Inlet Port
  ;                                       !- Outlet Port

OS:Connection,
  {110adb51-1ed2-4efc-bf23-cabc58405d5d}, !- Handle
  {f981603c-e1df-4814-aa79-2342b1ae0197}, !- Name
  {247727b3-3279-4b6d-acac-afdfb7ca9ddf}, !- Source Object
  11,                                     !- Outlet Port
  {8bf0a7fc-e232-4e6a-9058-eab3282ccc70}, !- Target Object
  2;                                      !- Inlet Port

OS:PortList,
  {9f76d723-5abc-4ec0-982c-130259050514}, !- Handle
  {5814b746-ccaa-41be-ad9f-ac7a8a7ff4d7}, !- Name
  {247727b3-3279-4b6d-acac-afdfb7ca9ddf}; !- HVAC Component

OS:PortList,
  {45834615-89ac-44e4-8055-6db76de16278}, !- Handle
  {478b9342-755c-43b1-91f1-9457371c1f9e}, !- Name
  {247727b3-3279-4b6d-acac-afdfb7ca9ddf}; !- HVAC Component

OS:PortList,
  {6eeb8142-c38a-477f-8c20-97300bfd426d}, !- Handle
  {4bcaf3a1-acc4-473f-be1a-13e83b001ff2}, !- Name
  {247727b3-3279-4b6d-acac-afdfb7ca9ddf}; !- HVAC Component

OS:Sizing:Zone,
  {4df8a74e-6b76-4390-b42c-f621aae14250}, !- Handle
  {247727b3-3279-4b6d-acac-afdfb7ca9ddf}, !- Zone or ZoneList Name
  SupplyAirTemperature,                   !- Zone Cooling Design Supply Air Temperature Input Method
  14,                                     !- Zone Cooling Design Supply Air Temperature {C}
  11.11,                                  !- Zone Cooling Design Supply Air Temperature Difference {deltaC}
  SupplyAirTemperature,                   !- Zone Heating Design Supply Air Temperature Input Method
  40,                                     !- Zone Heating Design Supply Air Temperature {C}
  11.11,                                  !- Zone Heating Design Supply Air Temperature Difference {deltaC}
  0.0085,                                 !- Zone Cooling Design Supply Air Humidity Ratio {kg-H2O/kg-air}
  0.008,                                  !- Zone Heating Design Supply Air Humidity Ratio {kg-H2O/kg-air}
  ,                                       !- Zone Heating Sizing Factor
  ,                                       !- Zone Cooling Sizing Factor
  DesignDay,                              !- Cooling Design Air Flow Method
  ,                                       !- Cooling Design Air Flow Rate {m3/s}
  ,                                       !- Cooling Minimum Air Flow per Zone Floor Area {m3/s-m2}
  ,                                       !- Cooling Minimum Air Flow {m3/s}
  ,                                       !- Cooling Minimum Air Flow Fraction
  DesignDay,                              !- Heating Design Air Flow Method
  ,                                       !- Heating Design Air Flow Rate {m3/s}
  ,                                       !- Heating Maximum Air Flow per Zone Floor Area {m3/s-m2}
  ,                                       !- Heating Maximum Air Flow {m3/s}
  ,                                       !- Heating Maximum Air Flow Fraction
  ,                                       !- Design Zone Air Distribution Effectiveness in Cooling Mode
  ,                                       !- Design Zone Air Distribution Effectiveness in Heating Mode
  No,                                     !- Account for Dedicated Outdoor Air System
  NeutralSupplyAir,                       !- Dedicated Outdoor Air System Control Strategy
  autosize,                               !- Dedicated Outdoor Air Low Setpoint Temperature for Design {C}
  autosize;                               !- Dedicated Outdoor Air High Setpoint Temperature for Design {C}

OS:ZoneHVAC:EquipmentList,
  {6fc9889b-3e72-4d97-9941-0e3702fe8619}, !- Handle
  Zone HVAC Equipment List 2,             !- Name
  {247727b3-3279-4b6d-acac-afdfb7ca9ddf}; !- Thermal Zone

OS:Space,
  {d1fc93a9-4e91-42ef-8223-19baabe126c9}, !- Handle
  garage space,                           !- Name
  {b20132a9-c838-4ad2-a218-2d30e7dbdc0d}, !- Space Type Name
  ,                                       !- Default Construction Set Name
  ,                                       !- Default Schedule Set Name
  -0,                                     !- Direction of Relative North {deg}
  0,                                      !- X Origin {m}
  0,                                      !- Y Origin {m}
  0,                                      !- Z Origin {m}
  ,                                       !- Building Story Name
  {247727b3-3279-4b6d-acac-afdfb7ca9ddf}; !- Thermal Zone Name

OS:Surface,
  {c62b5137-efed-419e-ae5b-6683a49b03b2}, !- Handle
  Surface 1,                              !- Name
  Floor,                                  !- Surface Type
  {ca5fdc98-989b-4e44-9f5c-3d373a1952fe}, !- Construction Name
  {d1fc93a9-4e91-42ef-8223-19baabe126c9}, !- Space Name
  Foundation,                             !- Outside Boundary Condition
  {51e7b789-c395-4da3-956d-0e17f4409b88}, !- Outside Boundary Condition Object
  NoSun,                                  !- Sun Exposure
  NoWind,                                 !- Wind Exposure
  ,                                       !- View Factor to Ground
  ,                                       !- Number of Vertices
  7.6199999993904, -3.048, 0,             !- X,Y,Z Vertex 1 {m}
  7.6199999993904, 3.048, 0,              !- X,Y,Z Vertex 2 {m}
  11.2775999993904, 3.048, 0,             !- X,Y,Z Vertex 3 {m}
  11.2775999993904, -3.048, 0;            !- X,Y,Z Vertex 4 {m}

OS:Surface,
  {f8361ab7-5479-4fad-85ff-7757c6c53cfc}, !- Handle
  Surface 2,                              !- Name
  Wall,                                   !- Surface Type
  {4c8c2738-3a16-472a-bb7d-8992be444ff3}, !- Construction Name
  {d1fc93a9-4e91-42ef-8223-19baabe126c9}, !- Space Name
  Surface,                                !- Outside Boundary Condition
  {f3649c21-90b3-41c0-98e1-253a21eaca00}, !- Outside Boundary Condition Object
  NoSun,                                  !- Sun Exposure
  NoWind,                                 !- Wind Exposure
  ,                                       !- View Factor to Ground
  ,                                       !- Number of Vertices
  7.6199999993904, 3.048, 2.4384,         !- X,Y,Z Vertex 1 {m}
  7.6199999993904, 3.048, 0,              !- X,Y,Z Vertex 2 {m}
  7.6199999993904, 0, 0,                  !- X,Y,Z Vertex 3 {m}
  7.6199999993904, 0, 2.4384;             !- X,Y,Z Vertex 4 {m}

OS:Surface,
  {8066706a-9428-48da-a3b8-133002b3f134}, !- Handle
  Surface 3,                              !- Name
  Wall,                                   !- Surface Type
  {4c8c2738-3a16-472a-bb7d-8992be444ff3}, !- Construction Name
  {d1fc93a9-4e91-42ef-8223-19baabe126c9}, !- Space Name
  Surface,                                !- Outside Boundary Condition