!- NOTE: Auto-generated from /test/osw_files/SFD_HVACSizing_Equip_MSHPDucted_Autosize.osw

OS:Version,
  {171d8633-466d-41c8-9b32-1354ef56023b}, !- Handle
  2.7.0;                                  !- Version Identifier

OS:Building,
  {6797ef70-795c-48ed-8eb6-9cc3f9bd3ed4}, !- Handle
  Building 1,                             !- Name
  ,                                       !- Building Sector Type
  22.5,                                   !- North Axis {deg}
  ,                                       !- Nominal Floor to Floor Height {m}
  ,                                       !- Space Type Name
  ,                                       !- Default Construction Set Name
  ,                                       !- Default Schedule Set Name
  4,                                      !- Standards Number of Stories
  3,                                      !- Standards Number of Above Ground Stories
  ,                                       !- Standards Template
  singlefamilydetached,                   !- Standards Building Type
  1;                                      !- Standards Number of Living Units

OS:Facility,
  {a5fe414d-4efe-4c62-88ec-97a3294fca85}; !- Handle

OS:Site,
  {958ce893-d866-4bcc-a443-9fba81bfd009}, !- Handle
  Denver Intl Ap_CO_USA,                  !- Name
  39.83,                                  !- Latitude {deg}
  -104.65,                                !- Longitude {deg}
  -7,                                     !- Time Zone {hr}
  1650,                                   !- Elevation {m}
  Suburbs;                                !- Terrain

OS:SimulationControl,
  {99ac8323-93c8-43d8-905d-bbc5aa3995c6}, !- Handle
  ,                                       !- Do Zone Sizing Calculation
  ,                                       !- Do System Sizing Calculation
  ,                                       !- Do Plant Sizing Calculation
  No;                                     !- Run Simulation for Sizing Periods

OS:Sizing:Parameters,
  {9c60e867-d4e0-489e-a0ba-50e391caade8}, !- Handle
  1.25,                                   !- Heating Sizing Factor
  1.15;                                   !- Cooling Sizing Factor

OS:Timestep,
  {7b79e929-53ac-4632-8ebe-911917edd215}, !- Handle
  6;                                      !- Number of Timesteps per Hour

OS:ShadowCalculation,
  {86484a65-6605-4b71-bd1a-4c2aee9d0b51}, !- Handle
  20,                                     !- Calculation Frequency
  200;                                    !- Maximum Figures in Shadow Overlap Calculations

OS:HeatBalanceAlgorithm,
  {3d450b86-560b-4422-b13a-fb558490e3a2}, !- Handle
  ConductionTransferFunction,             !- Algorithm
  200;                                    !- Surface Temperature Upper Limit {C}

OS:RunPeriod,
  {d520c3ba-1ec4-4bee-8ca1-f936c736923a}, !- Handle
  Run Period 1,                           !- Name
  1,                                      !- Begin Month
  1,                                      !- Begin Day of Month
  12,                                     !- End Month
  31,                                     !- End Day of Month
  ,                                       !- Use Weather File Holidays and Special Days
  ,                                       !- Use Weather File Daylight Saving Period
  ,                                       !- Apply Weekend Holiday Rule
  ,                                       !- Use Weather File Rain Indicators
  ,                                       !- Use Weather File Snow Indicators
  ;                                       !- Number of Times Runperiod to be Repeated

OS:LifeCycleCost:Parameters,
  {97e0fcfc-05e7-4d66-a8ce-db9aab8acb5d}, !- Handle
  ,                                       !- Analysis Type
  ,                                       !- Discounting Convention
  ,                                       !- Inflation Approach
  ,                                       !- Real Discount Rate
  ,                                       !- Nominal Discount Rate
  ,                                       !- Inflation
  ,                                       !- Base Date Month
  ,                                       !- Base Date Year
  ,                                       !- Service Date Month
  ,                                       !- Service Date Year
  ;                                       !- Length of Study Period in Years

OS:SurfaceConvectionAlgorithm:Outside,
  {9034f16e-4e14-46df-883e-6203991128f7}, !- Handle
  DOE-2;                                  !- Algorithm

OS:SurfaceConvectionAlgorithm:Inside,
  {81c7851e-8cd0-4383-ab08-de733d377fb1}, !- Handle
  TARP;                                   !- Algorithm

OS:ZoneCapacitanceMultiplier:ResearchSpecial,
  {b74cca37-5bc7-44af-84e6-2864da30feb9}, !- Handle
  ,                                       !- Temperature Capacity Multiplier
  15,                                     !- Humidity Capacity Multiplier
  ;                                       !- Carbon Dioxide Capacity Multiplier

OS:WeatherFile,
  {a6ee026a-ed74-409a-af0e-685800d19cc2}, !- Handle
  Denver Intl Ap,                         !- City
  CO,                                     !- State Province Region
  USA,                                    !- Country
  TMY3,                                   !- Data Source
  725650,                                 !- WMO Number
  39.83,                                  !- Latitude {deg}
  -104.65,                                !- Longitude {deg}
  -7,                                     !- Time Zone {hr}
  1650,                                   !- Elevation {m}
  file:../tests/USA_CO_Denver_Intl_AP_725650_TMY3.epw, !- Url
  E23378AA;                               !- Checksum

OS:AdditionalProperties,
  {061fed2e-e0fe-4581-b636-3f1c65bea469}, !- Handle
  {a6ee026a-ed74-409a-af0e-685800d19cc2}, !- Object Name
  EPWHeaderCity,                          !- Feature Name 1
  String,                                 !- Feature Data Type 1
  Denver Intl Ap,                         !- Feature Value 1
  EPWHeaderState,                         !- Feature Name 2
  String,                                 !- Feature Data Type 2
  CO,                                     !- Feature Value 2
  EPWHeaderCountry,                       !- Feature Name 3
  String,                                 !- Feature Data Type 3
  USA,                                    !- Feature Value 3
  EPWHeaderDataSource,                    !- Feature Name 4
  String,                                 !- Feature Data Type 4
  TMY3,                                   !- Feature Value 4
  EPWHeaderStation,                       !- Feature Name 5
  String,                                 !- Feature Data Type 5
  725650,                                 !- Feature Value 5
  EPWHeaderLatitude,                      !- Feature Name 6
  Double,                                 !- Feature Data Type 6
  39.829999999999998,                     !- Feature Value 6
  EPWHeaderLongitude,                     !- Feature Name 7
  Double,                                 !- Feature Data Type 7
  -104.65000000000001,                    !- Feature Value 7
  EPWHeaderTimezone,                      !- Feature Name 8
  Double,                                 !- Feature Data Type 8
  -7,                                     !- Feature Value 8
  EPWHeaderAltitude,                      !- Feature Name 9
  Double,                                 !- Feature Data Type 9
  5413.3858267716532,                     !- Feature Value 9
  EPWHeaderLocalPressure,                 !- Feature Name 10
  Double,                                 !- Feature Data Type 10
  0.81937567683596546,                    !- Feature Value 10
  EPWHeaderRecordsPerHour,                !- Feature Name 11
  Double,                                 !- Feature Data Type 11
  1,                                      !- Feature Value 11
  EPWDataAnnualAvgDrybulb,                !- Feature Name 12
  Double,                                 !- Feature Data Type 12
  51.575616438356228,                     !- Feature Value 12
  EPWDataAnnualMinDrybulb,                !- Feature Name 13
  Double,                                 !- Feature Data Type 13
  -2.9200000000000017,                    !- Feature Value 13
  EPWDataAnnualMaxDrybulb,                !- Feature Name 14
  Double,                                 !- Feature Data Type 14
  104,                                    !- Feature Value 14
  EPWDataCDD50F,                          !- Feature Name 15
  Double,                                 !- Feature Data Type 15
  3072.2925000000005,                     !- Feature Value 15
  EPWDataCDD65F,                          !- Feature Name 16
  Double,                                 !- Feature Data Type 16
  883.62000000000035,                     !- Feature Value 16
  EPWDataHDD50F,                          !- Feature Name 17
  Double,                                 !- Feature Data Type 17
  2497.1925000000001,                     !- Feature Value 17
  EPWDataHDD65F,                          !- Feature Name 18
  Double,                                 !- Feature Data Type 18
  5783.5200000000013,                     !- Feature Value 18
  EPWDataAnnualAvgWindspeed,              !- Feature Name 19
  Double,                                 !- Feature Data Type 19
  3.9165296803649667,                     !- Feature Value 19
  EPWDataMonthlyAvgDrybulbs,              !- Feature Name 20
  String,                                 !- Feature Data Type 20
  33.4191935483871&#4431.90142857142857&#4443.02620967741937&#4442.48624999999999&#4459.877741935483854&#4473.57574999999997&#4472.07975806451608&#4472.70008064516134&#4466.49200000000006&#4450.079112903225806&#4437.218250000000005&#4434.582177419354835, !- Feature Value 20
  EPWDataGroundMonthlyTemps,              !- Feature Name 21
  String,                                 !- Feature Data Type 21
  44.08306285945173&#4440.89570904991865&#4440.64045432632048&#4442.153016571250646&#4448.225111118704206&#4454.268919273837525&#4459.508577937551024&#4462.82777283423508&#4463.10975667174995&#4460.41014950381947&#4455.304105212311526&#4449.445696474514364, !- Feature Value 21
  EPWDataWSF,                             !- Feature Name 22
  Double,                                 !- Feature Data Type 22
  0.58999999999999997,                    !- Feature Value 22
  EPWDataMonthlyAvgDailyHighDrybulbs,     !- Feature Name 23
  String,                                 !- Feature Data Type 23
  47.41032258064516&#4446.58642857142857&#4455.15032258064517&#4453.708&#4472.80193548387098&#4488.67600000000002&#4486.1858064516129&#4485.87225806451613&#4482.082&#4463.18064516129033&#4448.73400000000001&#4448.87935483870968, !- Feature Value 23
  EPWDataMonthlyAvgDailyLowDrybulbs,      !- Feature Name 24
  String,                                 !- Feature Data Type 24
  19.347741935483874&#4419.856428571428573&#4430.316129032258065&#4431.112&#4447.41612903225806&#4457.901999999999994&#4459.063870967741934&#4460.956774193548384&#4452.352000000000004&#4438.41612903225806&#4427.002000000000002&#4423.02903225806451, !- Feature Value 24
  EPWDesignHeatingDrybulb,                !- Feature Name 25
  Double,                                 !- Feature Data Type 25
  6.8000000000000007,                     !- Feature Value 25
  EPWDesignHeatingWindspeed,              !- Feature Name 26
  Double,                                 !- Feature Data Type 26
  12,                                     !- Feature Value 26
  EPWDesignCoolingDrybulb,                !- Feature Name 27
  Double,                                 !- Feature Data Type 27
  91.760000000000005,                     !- Feature Value 27
  EPWDesignCoolingWetbulb,                !- Feature Name 28
  Double,                                 !- Feature Data Type 28
  60.079999999999998,                     !- Feature Value 28
  EPWDesignCoolingHumidityRatio,          !- Feature Name 29
  Double,                                 !- Feature Data Type 29
  0.006050392196571398,                   !- Feature Value 29
  EPWDesignCoolingWindspeed,              !- Feature Name 30
  Double,                                 !- Feature Data Type 30
  4.2000000000000002,                     !- Feature Value 30
  EPWDesignDailyTemperatureRange,         !- Feature Name 31
  Double,                                 !- Feature Data Type 31
  27.359999999999999,                     !- Feature Value 31
  EPWDesignDehumidDrybulb,                !- Feature Name 32
  Double,                                 !- Feature Data Type 32
  67.280000000000001,                     !- Feature Value 32
  EPWDesignDehumidHumidityRatio,          !- Feature Name 33
  Double,                                 !- Feature Data Type 33
  0.012295426899271008,                   !- Feature Value 33
  EPWDesignCoolingDirectNormal,           !- Feature Name 34
  Double,                                 !- Feature Data Type 34
  985,                                    !- Feature Value 34
  EPWDesignCoolingDiffuseHorizontal,      !- Feature Name 35
  Double,                                 !- Feature Data Type 35
  84;                                     !- Feature Value 35

OS:YearDescription,
  {60dbefd2-b992-42bf-90bf-12df077024c1}, !- Handle
  ,                                       !- Calendar Year
  Monday;                                 !- Day of Week for Start Day

OS:ClimateZones,
  {7ed9f1be-9ba6-4b39-82b9-abff8bf8a222}, !- Handle
  ,                                       !- Active Institution
  ,                                       !- Active Year
  ,                                       !- Climate Zone Institution Name 1
  ,                                       !- Climate Zone Document Name 1
  ,                                       !- Climate Zone Document Year 1
  ,                                       !- Climate Zone Value 1
  Building America,                       !- Climate Zone Institution Name 2
  ,                                       !- Climate Zone Document Name 2
  0,                                      !- Climate Zone Document Year 2
  Cold;                                   !- Climate Zone Value 2

OS:Site:WaterMainsTemperature,
  {9d1bc4b1-1bb3-49dc-837c-6d9656a5d916}, !- Handle
  Correlation,                            !- Calculation Method
  ,                                       !- Temperature Schedule Name
  10.8753424657535,                       !- Annual Average Outdoor Air Temperature {C}
  23.1524007936508;                       !- Maximum Difference In Monthly Average Outdoor Air Temperatures {deltaC}

OS:RunPeriodControl:DaylightSavingTime,
  {9a4e7834-404a-4f58-8e12-a37cda374550}, !- Handle
  4/7,                                    !- Start Date
  10/26;                                  !- End Date

OS:Site:GroundTemperature:Deep,
  {4e9d8ce0-57fa-4d62-b185-fa85b24e03a7}, !- Handle
  10.8753424657535,                       !- January Deep Ground Temperature {C}
  10.8753424657535,                       !- February Deep Ground Temperature {C}
  10.8753424657535,                       !- March Deep Ground Temperature {C}
  10.8753424657535,                       !- April Deep Ground Temperature {C}
  10.8753424657535,                       !- May Deep Ground Temperature {C}
  10.8753424657535,                       !- June Deep Ground Temperature {C}
  10.8753424657535,                       !- July Deep Ground Temperature {C}
  10.8753424657535,                       !- August Deep Ground Temperature {C}
  10.8753424657535,                       !- September Deep Ground Temperature {C}
  10.8753424657535,                       !- October Deep Ground Temperature {C}
  10.8753424657535,                       !- November Deep Ground Temperature {C}
  10.8753424657535;                       !- December Deep Ground Temperature {C}

OS:ThermalZone,
  {7f00295e-fedc-413a-81a2-711297a619e7}, !- Handle
  living zone,                            !- Name
  ,                                       !- Multiplier
  ,                                       !- Ceiling Height {m}
  ,                                       !- Volume {m3}
  ,                                       !- Floor Area {m2}
  ,                                       !- Zone Inside Convection Algorithm
  ,                                       !- Zone Outside Convection Algorithm
  ,                                       !- Zone Conditioning Equipment List Name
  {6f9319c8-a9c8-4803-8a88-ea301fcd46ad}, !- Zone Air Inlet Port List
  {77fd016f-e2e4-4a25-a8f3-4aea24577477}, !- Zone Air Exhaust Port List
  {c2752738-5c7e-4a7c-b767-acef0480a3a2}, !- Zone Air Node Name
  {9d43c95a-a3ea-4eff-9709-4a33e535ffed}, !- Zone Return Air Port List
  ,                                       !- Primary Daylighting Control Name
  ,                                       !- Fraction of Zone Controlled by Primary Daylighting Control
  ,                                       !- Secondary Daylighting Control Name
  ,                                       !- Fraction of Zone Controlled by Secondary Daylighting Control
  ,                                       !- Illuminance Map Name
  ,                                       !- Group Rendering Name
  {1f5947c2-1037-48fc-9141-9ab938799479}, !- Thermostat Name
  No;                                     !- Use Ideal Air Loads

OS:Node,
  {d892efbb-13d9-4365-9e01-f751c9a8b7ab}, !- Handle
  Node 1,                                 !- Name
  {c2752738-5c7e-4a7c-b767-acef0480a3a2}, !- Inlet Port
  ;                                       !- Outlet Port

OS:Connection,
  {c2752738-5c7e-4a7c-b767-acef0480a3a2}, !- Handle
  {3e5dcb23-303c-494e-82dd-8fb25c7f237b}, !- Name
  {7f00295e-fedc-413a-81a2-711297a619e7}, !- Source Object
  11,                                     !- Outlet Port
  {d892efbb-13d9-4365-9e01-f751c9a8b7ab}, !- Target Object
  2;                                      !- Inlet Port

OS:PortList,
  {6f9319c8-a9c8-4803-8a88-ea301fcd46ad}, !- Handle
  {00cb509a-e827-4619-b40b-1ba9d3649079}, !- Name
  {7f00295e-fedc-413a-81a2-711297a619e7}, !- HVAC Component
  {9bf0c3c5-03fa-4b8d-92f5-5439367c5921}; !- Port 1

OS:PortList,
  {77fd016f-e2e4-4a25-a8f3-4aea24577477}, !- Handle
  {c2c3fe5c-ceb8-4672-83d4-c7c79e78d4ba}, !- Name
  {7f00295e-fedc-413a-81a2-711297a619e7}, !- HVAC Component
  {5fccb311-5d7d-4e3d-9a25-e975ef655865}; !- Port 1

OS:PortList,
  {9d43c95a-a3ea-4eff-9709-4a33e535ffed}, !- Handle
  {92523d5a-3dfb-4240-874e-20e5e8335f67}, !- Name
  {7f00295e-fedc-413a-81a2-711297a619e7}; !- HVAC Component

OS:Sizing:Zone,
  {b2b6e3a3-ef9c-48e5-b7f2-a0666daf5efd}, !- Handle
  {7f00295e-fedc-413a-81a2-711297a619e7}, !- Zone or ZoneList Name
  SupplyAirTemperature,                   !- Zone Cooling Design Supply Air Temperature Input Method
  14,                                     !- Zone Cooling Design Supply Air Temperature {C}
  11.11,                                  !- Zone Cooling Design Supply Air Temperature Difference {deltaC}
  SupplyAirTemperature,                   !- Zone Heating Design Supply Air Temperature Input Method
  40,                                     !- Zone Heating Design Supply Air Temperature {C}
  11.11,                                  !- Zone Heating Design Supply Air Temperature Difference {deltaC}
  0.0085,                                 !- Zone Cooling Design Supply Air Humidity Ratio {kg-H2O/kg-air}
  0.008,                                  !- Zone Heating Design Supply Air Humidity Ratio {kg-H2O/kg-air}
  ,                                       !- Zone Heating Sizing Factor
  ,                                       !- Zone Cooling Sizing Factor
  DesignDay,                              !- Cooling Design Air Flow Method
  ,                                       !- Cooling Design Air Flow Rate {m3/s}
  ,                                       !- Cooling Minimum Air Flow per Zone Floor Area {m3/s-m2}
  ,                                       !- Cooling Minimum Air Flow {m3/s}
  ,                                       !- Cooling Minimum Air Flow Fraction
  DesignDay,                              !- Heating Design Air Flow Method
  ,                                       !- Heating Design Air Flow Rate {m3/s}
  ,                                       !- Heating Maximum Air Flow per Zone Floor Area {m3/s-m2}
  ,                                       !- Heating Maximum Air Flow {m3/s}
  ,                                       !- Heating Maximum Air Flow Fraction
  ,                                       !- Design Zone Air Distribution Effectiveness in Cooling Mode
  ,                                       !- Design Zone Air Distribution Effectiveness in Heating Mode
  No,                                     !- Account for Dedicated Outdoor Air System
  NeutralSupplyAir,                       !- Dedicated Outdoor Air System Control Strategy
  autosize,                               !- Dedicated Outdoor Air Low Setpoint Temperature for Design {C}
  autosize;                               !- Dedicated Outdoor Air High Setpoint Temperature for Design {C}

OS:ZoneHVAC:EquipmentList,
  {b0f7c52e-cc85-4821-bea9-a4b97acaa754}, !- Handle
  Zone HVAC Equipment List 1,             !- Name
  {7f00295e-fedc-413a-81a2-711297a619e7}, !- Thermal Zone
  ,                                       !- Load Distribution Scheme
  {4982d5de-0a9d-4ab9-9d57-733ed8cfa1cb}, !- Zone Equipment 1
  1,                                      !- Zone Equipment Cooling Sequence 1
  1;                                      !- Zone Equipment Heating or No-Load Sequence 1

OS:ThermalZone,
  {aff696d1-ff7e-4844-b07b-7de6a25ae195}, !- Handle
  garage zone,                            !- Name
  ,                                       !- Multiplier
  ,                                       !- Ceiling Height {m}
  ,                                       !- Volume {m3}
  ,                                       !- Floor Area {m2}
  ,                                       !- Zone Inside Convection Algorithm
  ,                                       !- Zone Outside Convection Algorithm
  ,                                       !- Zone Conditioning Equipment List Name
  {5a458a1b-a606-47a3-a8bd-0162370fc6d2}, !- Zone Air Inlet Port List
  {52e11f7d-c8ce-4f8c-825c-d24b4efddca5}, !- Zone Air Exhaust Port List
  {9f77b93c-1118-49bb-9a07-008c9fa54ded}, !- Zone Air Node Name
  {d3fc0f32-4767-48c6-be20-05bc688b0620}, !- Zone Return Air Port List
  ,                                       !- Primary Daylighting Control Name
  ,                                       !- Fraction of Zone Controlled by Primary Daylighting Control
  ,                                       !- Secondary Daylighting Control Name
  ,                                       !- Fraction of Zone Controlled by Secondary Daylighting Control
  ,                                       !- Illuminance Map Name
  ,                                       !- Group Rendering Name
  ,                                       !- Thermostat Name
  No;                                     !- Use Ideal Air Loads

OS:Node,
  {34dd0e88-e608-4e5e-a7a9-e97bed96830c}, !- Handle
  Node 2,                                 !- Name
  {9f77b93c-1118-49bb-9a07-008c9fa54ded}, !- Inlet Port
  ;                                       !- Outlet Port

OS:Connection,
  {9f77b93c-1118-49bb-9a07-008c9fa54ded}, !- Handle
  {6ca72778-7ddf-4ed0-a8e0-7779a25fba92}, !- Name
  {aff696d1-ff7e-4844-b07b-7de6a25ae195}, !- Source Object
  11,                                     !- Outlet Port
  {34dd0e88-e608-4e5e-a7a9-e97bed96830c}, !- Target Object
  2;                                      !- Inlet Port

OS:PortList,
  {5a458a1b-a606-47a3-a8bd-0162370fc6d2}, !- Handle
  {5f32d1ef-d9e8-44bd-8c79-c7b9b0c1aedd}, !- Name
  {aff696d1-ff7e-4844-b07b-7de6a25ae195}; !- HVAC Component

OS:PortList,
  {52e11f7d-c8ce-4f8c-825c-d24b4efddca5}, !- Handle
  {2ab2c874-0e2a-4342-8a8e-4b076931c418}, !- Name
  {aff696d1-ff7e-4844-b07b-7de6a25ae195}; !- HVAC Component

OS:PortList,
  {d3fc0f32-4767-48c6-be20-05bc688b0620}, !- Handle
  {40c9038e-22f7-47ad-a969-1e9361c0634d}, !- Name
  {aff696d1-ff7e-4844-b07b-7de6a25ae195}; !- HVAC Component

OS:Sizing:Zone,
  {1d0c96e7-931e-4488-825a-65f4427b2096}, !- Handle
  {aff696d1-ff7e-4844-b07b-7de6a25ae195}, !- Zone or ZoneList Name
  SupplyAirTemperature,                   !- Zone Cooling Design Supply Air Temperature Input Method
  14,                                     !- Zone Cooling Design Supply Air Temperature {C}
  11.11,                                  !- Zone Cooling Design Supply Air Temperature Difference {deltaC}
  SupplyAirTemperature,                   !- Zone Heating Design Supply Air Temperature Input Method
  40,                                     !- Zone Heating Design Supply Air Temperature {C}
  11.11,                                  !- Zone Heating Design Supply Air Temperature Difference {deltaC}
  0.0085,                                 !- Zone Cooling Design Supply Air Humidity Ratio {kg-H2O/kg-air}
  0.008,                                  !- Zone Heating Design Supply Air Humidity Ratio {kg-H2O/kg-air}
  ,                                       !- Zone Heating Sizing Factor
  ,                                       !- Zone Cooling Sizing Factor
  DesignDay,                              !- Cooling Design Air Flow Method
  ,                                       !- Cooling Design Air Flow Rate {m3/s}
  ,                                       !- Cooling Minimum Air Flow per Zone Floor Area {m3/s-m2}
  ,                                       !- Cooling Minimum Air Flow {m3/s}
  ,                                       !- Cooling Minimum Air Flow Fraction
  DesignDay,                              !- Heating Design Air Flow Method
  ,                                       !- Heating Design Air Flow Rate {m3/s}
  ,                                       !- Heating Maximum Air Flow per Zone Floor Area {m3/s-m2}
  ,                                       !- Heating Maximum Air Flow {m3/s}
  ,                                       !- Heating Maximum Air Flow Fraction
  ,                                       !- Design Zone Air Distribution Effectiveness in Cooling Mode
  ,                                       !- Design Zone Air Distribution Effectiveness in Heating Mode
  No,                                     !- Account for Dedicated Outdoor Air System
  NeutralSupplyAir,                       !- Dedicated Outdoor Air System Control Strategy
  autosize,                               !- Dedicated Outdoor Air Low Setpoint Temperature for Design {C}
  autosize;                               !- Dedicated Outdoor Air High Setpoint Temperature for Design {C}

OS:ZoneHVAC:EquipmentList,
  {2c31449e-3964-41ca-a8a7-f838c6d16431}, !- Handle
  Zone HVAC Equipment List 2,             !- Name
  {aff696d1-ff7e-4844-b07b-7de6a25ae195}; !- Thermal Zone

OS:Space,
  {3e26dd7d-0fbe-45b5-80d8-5ef57ca454c2}, !- Handle
  garage space,                           !- Name
  {12e2ac9f-ac23-44c0-b6c7-1569f8b62321}, !- Space Type Name
  ,                                       !- Default Construction Set Name
  ,                                       !- Default Schedule Set Name
  -0,                                     !- Direction of Relative North {deg}
  0,                                      !- X Origin {m}
  0,                                      !- Y Origin {m}
  0,                                      !- Z Origin {m}
  ,                                       !- Building Story Name
  {aff696d1-ff7e-4844-b07b-7de6a25ae195}; !- Thermal Zone Name

OS:Surface,
  {41d500b0-8813-48d6-a8b3-04ebc1033f63}, !- Handle
  Surface 1,                              !- Name
  Floor,                                  !- Surface Type
  {aa20d326-dc34-4ebc-b1b5-c9dced4df916}, !- Construction Name
  {3e26dd7d-0fbe-45b5-80d8-5ef57ca454c2}, !- Space Name
  Foundation,                             !- Outside Boundary Condition
  {da0cd5c9-3da6-47ec-88fa-1088c2577273}, !- Outside Boundary Condition Object
  NoSun,                                  !- Sun Exposure
  NoWind,                                 !- Wind Exposure
  ,                                       !- View Factor to Ground
  ,                                       !- Number of Vertices
  7.6199999993904, -3.048, 0,             !- X,Y,Z Vertex 1 {m}
  7.6199999993904, 3.048, 0,              !- X,Y,Z Vertex 2 {m}
  11.2775999993904, 3.048, 0,             !- X,Y,Z Vertex 3 {m}
  11.2775999993904, -3.048, 0;            !- X,Y,Z Vertex 4 {m}

OS:Surface,
  {e870252f-ed6d-4c80-afc4-aca911195630}, !- Handle
  Surface 2,                              !- Name
  Wall,                                   !- Surface Type
  {c80e3aa1-01d0-453c-a1a3-17f851535b0c}, !- Construction Name
  {3e26dd7d-0fbe-45b5-80d8-5ef57ca454c2}, !- Space Name
  Surface,                                !- Outside Boundary Condition
  {455e4514-cf18-479e-bde2-f3357e7c3178}, !- Outside Boundary Condition Object
  NoSun,                                  !- Sun Exposure
  NoWind,                                 !- Wind Exposure
  ,                                       !- View Factor to Ground
  ,                                       !- Number of Vertices
  7.6199999993904, 3.048, 2.4384,         !- X,Y,Z Vertex 1 {m}
  7.6199999993904, 3.048, 0,              !- X,Y,Z Vertex 2 {m}
  7.6199999993904, 0, 0,                  !- X,Y,Z Vertex 3 {m}
  7.6199999993904, 0, 2.4384;             !- X,Y,Z Vertex 4 {m}

OS:Surface,
  {ac269347-7e40-42c0-a359-dac779e70806}, !- Handle
  Surface 3,                              !- Name
  Wall,                                   !- Surface Type
  {c80e3aa1-01d0-453c-a1a3-17f851535b0c}, !- Construction Name
  {3e26dd7d-0fbe-45b5-80d8-5ef57ca454c2}, !- Space Name
  Surface,                                !- Outside Boundary Condition
  {2afc278b-d7fd-4410-b327-949d740e27e4}, !- Outside Boundary Condition Object