!- NOTE: Auto-generated from /test/osw_files/SFD_HVACSizing_Load_1story_PB_UA_Vented_ASHP_DuctsInUA.osw

OS:Version,
  {60572c84-56c9-4968-9c48-ae64f1d282a5}, !- Handle
  2.7.0;                                  !- Version Identifier

OS:Building,
  {98848699-fb86-4db3-b804-cefe1b56394e}, !- Handle
  Building 1,                             !- Name
  ,                                       !- Building Sector Type
  22.5,                                   !- North Axis {deg}
  ,                                       !- Nominal Floor to Floor Height {m}
  ,                                       !- Space Type Name
  ,                                       !- Default Construction Set Name
  ,                                       !- Default Schedule Set Name
  1,                                      !- Standards Number of Stories
  1,                                      !- Standards Number of Above Ground Stories
  ,                                       !- Standards Template
  singlefamilydetached,                   !- Standards Building Type
  1;                                      !- Standards Number of Living Units

OS:Facility,
  {39781c41-adaf-4378-9125-7f5b36b05822}; !- Handle

OS:Site,
  {6490ea34-69ca-41dd-9899-30a268f02ebf}, !- Handle
  Denver Intl Ap_CO_USA,                  !- Name
  39.83,                                  !- Latitude {deg}
  -104.65,                                !- Longitude {deg}
  -7,                                     !- Time Zone {hr}
  1650,                                   !- Elevation {m}
  Suburbs;                                !- Terrain

OS:SimulationControl,
  {b4984607-12bf-4875-b51e-8df1e131206d}, !- Handle
  ,                                       !- Do Zone Sizing Calculation
  ,                                       !- Do System Sizing Calculation
  ,                                       !- Do Plant Sizing Calculation
  No;                                     !- Run Simulation for Sizing Periods

OS:Sizing:Parameters,
  {fab12e65-ad5e-4ef9-92d2-14a4678a33ae}, !- Handle
  1.25,                                   !- Heating Sizing Factor
  1.15;                                   !- Cooling Sizing Factor

OS:Timestep,
  {47d4b15d-98ad-4b59-8136-0ec7b789dc95}, !- Handle
  6;                                      !- Number of Timesteps per Hour

OS:ShadowCalculation,
  {d3ac1049-dd92-44b3-892e-39f76742d91f}, !- Handle
  20,                                     !- Calculation Frequency
  200;                                    !- Maximum Figures in Shadow Overlap Calculations

OS:HeatBalanceAlgorithm,
  {bad4f7b2-6572-4889-bccc-e3b7ea0694fd}, !- Handle
  ConductionTransferFunction,             !- Algorithm
  200;                                    !- Surface Temperature Upper Limit {C}

OS:RunPeriod,
  {aef4ee91-e933-4962-a54c-c0140d05b579}, !- Handle
  Run Period 1,                           !- Name
  1,                                      !- Begin Month
  1,                                      !- Begin Day of Month
  12,                                     !- End Month
  31,                                     !- End Day of Month
  ,                                       !- Use Weather File Holidays and Special Days
  ,                                       !- Use Weather File Daylight Saving Period
  ,                                       !- Apply Weekend Holiday Rule
  ,                                       !- Use Weather File Rain Indicators
  ,                                       !- Use Weather File Snow Indicators
  ;                                       !- Number of Times Runperiod to be Repeated

OS:LifeCycleCost:Parameters,
  {d54b9336-8e17-429d-bbed-7c1daf042f3d}, !- Handle
  ,                                       !- Analysis Type
  ,                                       !- Discounting Convention
  ,                                       !- Inflation Approach
  ,                                       !- Real Discount Rate
  ,                                       !- Nominal Discount Rate
  ,                                       !- Inflation
  ,                                       !- Base Date Month
  ,                                       !- Base Date Year
  ,                                       !- Service Date Month
  ,                                       !- Service Date Year
  ;                                       !- Length of Study Period in Years

OS:SurfaceConvectionAlgorithm:Outside,
  {7a746a6c-f2a1-432c-9faa-e7baa7226153}, !- Handle
  DOE-2;                                  !- Algorithm

OS:SurfaceConvectionAlgorithm:Inside,
  {b452b4e2-3cd6-4283-99ad-575fb74cae92}, !- Handle
  TARP;                                   !- Algorithm

OS:ZoneCapacitanceMultiplier:ResearchSpecial,
  {7220f034-876c-4d87-bb32-8c5213b0d655}, !- Handle
  ,                                       !- Temperature Capacity Multiplier
  15,                                     !- Humidity Capacity Multiplier
  ;                                       !- Carbon Dioxide Capacity Multiplier

OS:WeatherFile,
  {c88c3b8b-88e3-4bd0-8ec0-8b02a64cc5c0}, !- Handle
  Denver Intl Ap,                         !- City
  CO,                                     !- State Province Region
  USA,                                    !- Country
  TMY3,                                   !- Data Source
  725650,                                 !- WMO Number
  39.83,                                  !- Latitude {deg}
  -104.65,                                !- Longitude {deg}
  -7,                                     !- Time Zone {hr}
  1650,                                   !- Elevation {m}
  file:../tests/USA_CO_Denver_Intl_AP_725650_TMY3.epw, !- Url
  E23378AA;                               !- Checksum

OS:AdditionalProperties,
  {04aea40e-fe1b-493c-8e8f-4eb1a1ee3f0b}, !- Handle
  {c88c3b8b-88e3-4bd0-8ec0-8b02a64cc5c0}, !- Object Name
  EPWHeaderCity,                          !- Feature Name 1
  String,                                 !- Feature Data Type 1
  Denver Intl Ap,                         !- Feature Value 1
  EPWHeaderState,                         !- Feature Name 2
  String,                                 !- Feature Data Type 2
  CO,                                     !- Feature Value 2
  EPWHeaderCountry,                       !- Feature Name 3
  String,                                 !- Feature Data Type 3
  USA,                                    !- Feature Value 3
  EPWHeaderDataSource,                    !- Feature Name 4
  String,                                 !- Feature Data Type 4
  TMY3,                                   !- Feature Value 4
  EPWHeaderStation,                       !- Feature Name 5
  String,                                 !- Feature Data Type 5
  725650,                                 !- Feature Value 5
  EPWHeaderLatitude,                      !- Feature Name 6
  Double,                                 !- Feature Data Type 6
  39.829999999999998,                     !- Feature Value 6
  EPWHeaderLongitude,                     !- Feature Name 7
  Double,                                 !- Feature Data Type 7
  -104.65000000000001,                    !- Feature Value 7
  EPWHeaderTimezone,                      !- Feature Name 8
  Double,                                 !- Feature Data Type 8
  -7,                                     !- Feature Value 8
  EPWHeaderAltitude,                      !- Feature Name 9
  Double,                                 !- Feature Data Type 9
  5413.3858267716532,                     !- Feature Value 9
  EPWHeaderLocalPressure,                 !- Feature Name 10
  Double,                                 !- Feature Data Type 10
  0.81937567683596546,                    !- Feature Value 10
  EPWHeaderRecordsPerHour,                !- Feature Name 11
  Double,                                 !- Feature Data Type 11
  1,                                      !- Feature Value 11
  EPWDataAnnualAvgDrybulb,                !- Feature Name 12
  Double,                                 !- Feature Data Type 12
  51.575616438356228,                     !- Feature Value 12
  EPWDataAnnualMinDrybulb,                !- Feature Name 13
  Double,                                 !- Feature Data Type 13
  -2.9200000000000017,                    !- Feature Value 13
  EPWDataAnnualMaxDrybulb,                !- Feature Name 14
  Double,                                 !- Feature Data Type 14
  104,                                    !- Feature Value 14
  EPWDataCDD50F,                          !- Feature Name 15
  Double,                                 !- Feature Data Type 15
  3072.2925000000005,                     !- Feature Value 15
  EPWDataCDD65F,                          !- Feature Name 16
  Double,                                 !- Feature Data Type 16
  883.62000000000035,                     !- Feature Value 16
  EPWDataHDD50F,                          !- Feature Name 17
  Double,                                 !- Feature Data Type 17
  2497.1925000000001,                     !- Feature Value 17
  EPWDataHDD65F,                          !- Feature Name 18
  Double,                                 !- Feature Data Type 18
  5783.5200000000013,                     !- Feature Value 18
  EPWDataAnnualAvgWindspeed,              !- Feature Name 19
  Double,                                 !- Feature Data Type 19
  3.9165296803649667,                     !- Feature Value 19
  EPWDataMonthlyAvgDrybulbs,              !- Feature Name 20
  String,                                 !- Feature Data Type 20
  33.4191935483871&#4431.90142857142857&#4443.02620967741937&#4442.48624999999999&#4459.877741935483854&#4473.57574999999997&#4472.07975806451608&#4472.70008064516134&#4466.49200000000006&#4450.079112903225806&#4437.218250000000005&#4434.582177419354835, !- Feature Value 20
  EPWDataGroundMonthlyTemps,              !- Feature Name 21
  String,                                 !- Feature Data Type 21
  44.08306285945173&#4440.89570904991865&#4440.64045432632048&#4442.153016571250646&#4448.225111118704206&#4454.268919273837525&#4459.508577937551024&#4462.82777283423508&#4463.10975667174995&#4460.41014950381947&#4455.304105212311526&#4449.445696474514364, !- Feature Value 21
  EPWDataWSF,                             !- Feature Name 22
  Double,                                 !- Feature Data Type 22
  0.58999999999999997,                    !- Feature Value 22
  EPWDataMonthlyAvgDailyHighDrybulbs,     !- Feature Name 23
  String,                                 !- Feature Data Type 23
  47.41032258064516&#4446.58642857142857&#4455.15032258064517&#4453.708&#4472.80193548387098&#4488.67600000000002&#4486.1858064516129&#4485.87225806451613&#4482.082&#4463.18064516129033&#4448.73400000000001&#4448.87935483870968, !- Feature Value 23
  EPWDataMonthlyAvgDailyLowDrybulbs,      !- Feature Name 24
  String,                                 !- Feature Data Type 24
  19.347741935483874&#4419.856428571428573&#4430.316129032258065&#4431.112&#4447.41612903225806&#4457.901999999999994&#4459.063870967741934&#4460.956774193548384&#4452.352000000000004&#4438.41612903225806&#4427.002000000000002&#4423.02903225806451, !- Feature Value 24
  EPWDesignHeatingDrybulb,                !- Feature Name 25
  Double,                                 !- Feature Data Type 25
  6.8000000000000007,                     !- Feature Value 25
  EPWDesignHeatingWindspeed,              !- Feature Name 26
  Double,                                 !- Feature Data Type 26
  12,                                     !- Feature Value 26
  EPWDesignCoolingDrybulb,                !- Feature Name 27
  Double,                                 !- Feature Data Type 27
  91.760000000000005,                     !- Feature Value 27
  EPWDesignCoolingWetbulb,                !- Feature Name 28
  Double,                                 !- Feature Data Type 28
  60.079999999999998,                     !- Feature Value 28
  EPWDesignCoolingHumidityRatio,          !- Feature Name 29
  Double,                                 !- Feature Data Type 29
  0.006050392196571398,                   !- Feature Value 29
  EPWDesignCoolingWindspeed,              !- Feature Name 30
  Double,                                 !- Feature Data Type 30
  4.2000000000000002,                     !- Feature Value 30
  EPWDesignDailyTemperatureRange,         !- Feature Name 31
  Double,                                 !- Feature Data Type 31
  27.359999999999999,                     !- Feature Value 31
  EPWDesignDehumidDrybulb,                !- Feature Name 32
  Double,                                 !- Feature Data Type 32
  67.280000000000001,                     !- Feature Value 32
  EPWDesignDehumidHumidityRatio,          !- Feature Name 33
  Double,                                 !- Feature Data Type 33
  0.012295426899271008,                   !- Feature Value 33
  EPWDesignCoolingDirectNormal,           !- Feature Name 34
  Double,                                 !- Feature Data Type 34
  985,                                    !- Feature Value 34
  EPWDesignCoolingDiffuseHorizontal,      !- Feature Name 35
  Double,                                 !- Feature Data Type 35
  84;                                     !- Feature Value 35

OS:YearDescription,
  {d0b1c33e-2b46-49a8-9ea3-842cbbbfb46b}, !- Handle
  ,                                       !- Calendar Year
  Monday;                                 !- Day of Week for Start Day

OS:ClimateZones,
  {25ff8788-27c9-40c4-9b72-393ece813778}, !- Handle
  ,                                       !- Active Institution
  ,                                       !- Active Year
  ,                                       !- Climate Zone Institution Name 1
  ,                                       !- Climate Zone Document Name 1
  ,                                       !- Climate Zone Document Year 1
  ,                                       !- Climate Zone Value 1
  Building America,                       !- Climate Zone Institution Name 2
  ,                                       !- Climate Zone Document Name 2
  0,                                      !- Climate Zone Document Year 2
  Cold;                                   !- Climate Zone Value 2

OS:Site:WaterMainsTemperature,
  {b8f37f46-2c49-40e2-97cb-702b5d826d35}, !- Handle
  Correlation,                            !- Calculation Method
  ,                                       !- Temperature Schedule Name
  10.8753424657535,                       !- Annual Average Outdoor Air Temperature {C}
  23.1524007936508;                       !- Maximum Difference In Monthly Average Outdoor Air Temperatures {deltaC}

OS:RunPeriodControl:DaylightSavingTime,
  {fa9e9e5e-fa20-44ed-96f6-22829ea5e50c}, !- Handle
  4/7,                                    !- Start Date
  10/26;                                  !- End Date

OS:Site:GroundTemperature:Deep,
  {cdb74a28-a813-4ed9-b7be-e1cc2c75c3e4}, !- Handle
  10.8753424657535,                       !- January Deep Ground Temperature {C}
  10.8753424657535,                       !- February Deep Ground Temperature {C}
  10.8753424657535,                       !- March Deep Ground Temperature {C}
  10.8753424657535,                       !- April Deep Ground Temperature {C}
  10.8753424657535,                       !- May Deep Ground Temperature {C}
  10.8753424657535,                       !- June Deep Ground Temperature {C}
  10.8753424657535,                       !- July Deep Ground Temperature {C}
  10.8753424657535,                       !- August Deep Ground Temperature {C}
  10.8753424657535,                       !- September Deep Ground Temperature {C}
  10.8753424657535,                       !- October Deep Ground Temperature {C}
  10.8753424657535,                       !- November Deep Ground Temperature {C}
  10.8753424657535;                       !- December Deep Ground Temperature {C}

OS:ThermalZone,
  {c75b67f2-dd7f-4d98-9fbe-12fd1f4e8317}, !- Handle
  living zone,                            !- Name
  ,                                       !- Multiplier
  ,                                       !- Ceiling Height {m}
  ,                                       !- Volume {m3}
  ,                                       !- Floor Area {m2}
  ,                                       !- Zone Inside Convection Algorithm
  ,                                       !- Zone Outside Convection Algorithm
  ,                                       !- Zone Conditioning Equipment List Name
  {d2bc01a3-5e23-4490-8ad7-6f76317942bd}, !- Zone Air Inlet Port List
  {9460219f-2c0e-4b5e-8883-b5e5a41667d8}, !- Zone Air Exhaust Port List
  {b5c6c262-25cd-42da-9736-fc7822ec4f10}, !- Zone Air Node Name
  {8c592c2a-f0b1-474d-8aaa-efdea56b696e}, !- Zone Return Air Port List
  ,                                       !- Primary Daylighting Control Name
  ,                                       !- Fraction of Zone Controlled by Primary Daylighting Control
  ,                                       !- Secondary Daylighting Control Name
  ,                                       !- Fraction of Zone Controlled by Secondary Daylighting Control
  ,                                       !- Illuminance Map Name
  ,                                       !- Group Rendering Name
  {5986d228-91eb-4125-9e7f-4a9743fabb6f}, !- Thermostat Name
  No;                                     !- Use Ideal Air Loads

OS:Node,
  {2296f17e-cf2f-471f-af69-61bdf2177bd9}, !- Handle
  Node 1,                                 !- Name
  {b5c6c262-25cd-42da-9736-fc7822ec4f10}, !- Inlet Port
  ;                                       !- Outlet Port

OS:Connection,
  {b5c6c262-25cd-42da-9736-fc7822ec4f10}, !- Handle
  {5af53b5f-de2d-4b08-9044-57a165449743}, !- Name
  {c75b67f2-dd7f-4d98-9fbe-12fd1f4e8317}, !- Source Object
  11,                                     !- Outlet Port
  {2296f17e-cf2f-471f-af69-61bdf2177bd9}, !- Target Object
  2;                                      !- Inlet Port

OS:PortList,
  {d2bc01a3-5e23-4490-8ad7-6f76317942bd}, !- Handle
  {d69b59ce-3d94-4b41-b3b2-920d122f9aaf}, !- Name
  {c75b67f2-dd7f-4d98-9fbe-12fd1f4e8317}, !- HVAC Component
  {d084695a-a713-489c-bf6d-abfba2dc7742}; !- Port 1

OS:PortList,
  {9460219f-2c0e-4b5e-8883-b5e5a41667d8}, !- Handle
  {a01632e7-fa3a-4c06-8c7a-711879cdc6bb}, !- Name
  {c75b67f2-dd7f-4d98-9fbe-12fd1f4e8317}; !- HVAC Component

OS:PortList,
  {8c592c2a-f0b1-474d-8aaa-efdea56b696e}, !- Handle
  {21dd0703-404d-4cf0-9ce7-4fa646b6265f}, !- Name
  {c75b67f2-dd7f-4d98-9fbe-12fd1f4e8317}, !- HVAC Component
  {07b39558-6bfc-4888-8b1c-38210f1ed4ad}; !- Port 1

OS:Sizing:Zone,
  {e9ea7181-1243-40e9-9b56-cc393b8a5daa}, !- Handle
  {c75b67f2-dd7f-4d98-9fbe-12fd1f4e8317}, !- Zone or ZoneList Name
  SupplyAirTemperature,                   !- Zone Cooling Design Supply Air Temperature Input Method
  14,                                     !- Zone Cooling Design Supply Air Temperature {C}
  11.11,                                  !- Zone Cooling Design Supply Air Temperature Difference {deltaC}
  SupplyAirTemperature,                   !- Zone Heating Design Supply Air Temperature Input Method
  40,                                     !- Zone Heating Design Supply Air Temperature {C}
  11.11,                                  !- Zone Heating Design Supply Air Temperature Difference {deltaC}
  0.0085,                                 !- Zone Cooling Design Supply Air Humidity Ratio {kg-H2O/kg-air}
  0.008,                                  !- Zone Heating Design Supply Air Humidity Ratio {kg-H2O/kg-air}
  ,                                       !- Zone Heating Sizing Factor
  ,                                       !- Zone Cooling Sizing Factor
  DesignDay,                              !- Cooling Design Air Flow Method
  ,                                       !- Cooling Design Air Flow Rate {m3/s}
  ,                                       !- Cooling Minimum Air Flow per Zone Floor Area {m3/s-m2}
  ,                                       !- Cooling Minimum Air Flow {m3/s}
  ,                                       !- Cooling Minimum Air Flow Fraction
  DesignDay,                              !- Heating Design Air Flow Method
  ,                                       !- Heating Design Air Flow Rate {m3/s}
  ,                                       !- Heating Maximum Air Flow per Zone Floor Area {m3/s-m2}
  ,                                       !- Heating Maximum Air Flow {m3/s}
  ,                                       !- Heating Maximum Air Flow Fraction
  ,                                       !- Design Zone Air Distribution Effectiveness in Cooling Mode
  ,                                       !- Design Zone Air Distribution Effectiveness in Heating Mode
  No,                                     !- Account for Dedicated Outdoor Air System
  NeutralSupplyAir,                       !- Dedicated Outdoor Air System Control Strategy
  autosize,                               !- Dedicated Outdoor Air Low Setpoint Temperature for Design {C}
  autosize;                               !- Dedicated Outdoor Air High Setpoint Temperature for Design {C}

OS:ZoneHVAC:EquipmentList,
  {d19d6d0e-9af0-4315-a0a1-425084091f18}, !- Handle
  Zone HVAC Equipment List 1,             !- Name
  {c75b67f2-dd7f-4d98-9fbe-12fd1f4e8317}, !- Thermal Zone
  ,                                       !- Load Distribution Scheme
  {f66bfe47-508c-4360-87a9-993597edcf8c}, !- Zone Equipment 1
  1,                                      !- Zone Equipment Cooling Sequence 1
  1;                                      !- Zone Equipment Heating or No-Load Sequence 1

OS:Space,
  {5d961ab2-6f77-4e93-a219-0ff489a98317}, !- Handle
  living space,                           !- Name
  {9f29b010-7b3a-46c2-8de6-00b837619448}, !- Space Type Name
  ,                                       !- Default Construction Set Name
  ,                                       !- Default Schedule Set Name
  -0,                                     !- Direction of Relative North {deg}
  0,                                      !- X Origin {m}
  0,                                      !- Y Origin {m}
  0.9144,                                 !- Z Origin {m}
  ,                                       !- Building Story Name
  {c75b67f2-dd7f-4d98-9fbe-12fd1f4e8317}, !- Thermal Zone Name
  ,                                       !- Part of Total Floor Area
  ,                                       !- Design Specification Outdoor Air Object Name
  {b89ccdc0-9072-4f53-a97c-556515f4cdbd}; !- Building Unit Name

OS:Surface,
  {8c24b8e8-dbe1-4d78-8fdd-e8d2c4e8ee46}, !- Handle
  Surface 1,                              !- Name
  Floor,                                  !- Surface Type
  {98d5179c-d452-4567-857a-da8d09f87796}, !- Construction Name
  {5d961ab2-6f77-4e93-a219-0ff489a98317}, !- Space Name
  Surface,                                !- Outside Boundary Condition
  {5d74c57f-f48b-469c-9460-e6c9ce504f3a}, !- Outside Boundary Condition Object
  NoSun,                                  !- Sun Exposure
  NoWind,                                 !- Wind Exposure
  ,                                       !- View Factor to Ground
  ,                                       !- Number of Vertices
  0, 0, -1.11022302462516e-016,           !- X,Y,Z Vertex 1 {m}
  0, 7.01040000037894, -1.11022302462516e-016, !- X,Y,Z Vertex 2 {m}
  11.2775999993904, 7.01040000037894, -1.11022302462516e-016, !- X,Y,Z Vertex 3 {m}
  11.2775999993904, 0, -1.11022302462516e-016; !- X,Y,Z Vertex 4 {m}

OS:Surface,
  {a40c352e-50d3-4997-bd75-ac1b1ccde5c1}, !- Handle
  Surface 2,                              !- Name
  Wall,                                   !- Surface Type
  {da900bf5-d690-4295-92c9-cd16ad913073}, !- Construction Name
  {5d961ab2-6f77-4e93-a219-0ff489a98317}, !- Space Name
  Outdoors,                               !- Outside Boundary Condition
  ,                                       !- Outside Boundary Condition Object
  SunExposed,                             !- Sun Exposure
  WindExposed,                            !- Wind Exposure
  ,                                       !- View Factor to Ground
  ,                                       !- Number of Vertices
  0, 7.01040000037894, 2.4384,            !- X,Y,Z Vertex 1 {m}
  0, 7.01040000037894, -1.11022302462516e-016, !- X,Y,Z Vertex 2 {m}
  0, 0, -1.11022302462516e-016,           !- X,Y,Z Vertex 3 {m}
  0, 0, 2.4384;                           !- X,Y,Z Vertex 4 {m}

OS:Surface,
  {2f7a9ff0-4ca4-4b3f-827a-7958c936db5e}, !- Handle
  Surface 3,                              !- Name
  Wall,                                   !- Surface Type
  {da900bf5-d690-4295-92c9-cd16ad913073}, !- Construction Name
  {5d961ab2-6f77-4e93-a219-0ff489a98317}, !- Space Name
  Outdoors,                               !- Outside Boundary Condition
  ,                                       !- Outside Boundary Condition Object
  SunExposed,                             !- Sun Exposure
  WindExposed,                            !- Wind Exposure
  ,                                       !- View Factor to Ground
  ,                                       !- Number of Vertices
  11.2775999993904, 7.01040000037894, 2.4384, !- X,Y,Z Vertex 1 {m}
  11.2775999993904, 7.01040000037894, -1.11022302462516e-016, !- X,Y,Z Vertex 2 {m}
  0, 7.01040000037894, -1.11022302462516e-016, !- X,Y,Z Vertex 3 {m}
  0, 7.01040000037894, 2.4384;            !- X,Y,Z Vertex 4 {m}

OS:Surface,
  {c6c243bd-6498-4dc1-9533-51fb6006c87f}, !- Handle
  Surface 4,                              !- Name
  Wall,                                   !- Surface Type
  {da900bf5-d690-4295-92c9-cd16ad913073}, !- Construction Name
  {5d961ab2-6f77-4e93-a219-0ff489a98317}, !- Space Name
  Outdoors,                               !- Outside Boundary Condition
  ,                                       !- Outside Boundary Condition Object
  SunExposed,                             !- Sun Exposure
  WindExposed,                            !- Wind Exposure
  ,                                       !- View Factor to Ground
  ,                                       !- Number of Vertices
  11.2775999993904, 0, 2.4384,            !- X,Y,Z Vertex 1 {m}
  11.2775999993904, 0, -1.11022302462516e-016, !- X,Y,Z Vertex 2 {m}
  11.2775999993904, 7.01040000037894, -1.11022302462516e-016, !- X,Y,Z Vertex 3 {m}
  11.2775999993904, 7.01040000037894, 2.4384; !- X,Y,Z Vertex 4 {m}

OS:Surface,
  {651f56e4-6e0d-45ba-9731-d4afd6a12a71}, !- Handle
  Surface 5,                              !- Name
  Wall,                                   !- Surface Type
  {da900bf5-d690-4295-92c9-cd16ad913073}, !- Construction Name
  {5d961ab2-6f77-4e93-a219-0ff489a98317}, !- Space Name
  Outdoors,                               !- Outside Boundary Condition
  ,                                       !- Outside Boundary Condition Object
  SunExposed,                             !- Sun Exposure
  WindExposed,                            !- Wind Exposure
  ,                                       !- View Factor to Ground
  ,                                       !- Number of Vertices
  11.2775999993904, 0, -1.11022302462516e-016, !- X,Y,Z Vertex 1 {m}
  11.2775999993904, 0, 2.4384,            !- X,Y,Z Vertex 2 {m}
  1.04865714285714, 0, 2.4384,            !- X,Y,Z Vertex 3 {m}
  1.04865714285714, 0, -1.11022302462516e-016; !- X,Y,Z Vertex 4 {m}

OS:Surface,
  {5e952088-a327-4a4d-b04e-52e2ff49ad35}, !- Handle
  Surface 6,                              !- Name
  RoofCeiling,                            !- Surface Type
  {7daeb54e-a972-4a94-8f70-fe131d7792ff}, !- Construction Name
  {5d961ab2-6f77-4e93-a219-0ff489a98317}, !- Space Name
  Surface,                                !- Outside Boundary Condition
  {c0d1e85f-187e-47c9-88a1-adc8ef838be6}, !- Outside Boundary Condition Object
  NoSun,                                  !- Sun Exposure
  NoWind,                                 !- Wind Exposure
  ,                                       !- View Factor to Ground
  ,                                       !- Number of Vertices
  11.2775999993904, 0, 2.4384,            !- X,Y,Z Vertex 1 {m}
  11.2775999993904, 7.01040000037894, 2.4384, !- X,Y,Z Vertex 2 {m}
  0, 7.01040000037894, 2.4384,            !- X,Y,Z Vertex 3 {m}
  0, 0, 2.4384;                           !- X,Y,Z Vertex 4 {m}

OS:SpaceType,
  {9f29b010-7b3a-46c2-8de6-00b837619448}, !- Handle
  Space Type 1,                           !- Name
  ,                                       !- Default Construction Set Name
  ,                                       !- Default Schedule Set Name
  ,                                       !- Group Rendering Name
  ,                                       !- Design Specification Outdoor Air Object Name
  ,                                       !- Standards Template
  ,                                       !- Standards Building Type
  living;                                 !- Standards Space Type

OS:Surface,
  {c0d1e85f-187e-47c9-88a1-adc8ef838be6}, !- Handle
  Surface 7,                              !- Name
  Floor,                                  !- Surface Type
  {139e4aac-43c2-48f3-8528-d1ebc37c9504}, !- Construction Name
  {0062e10d-06a3-4a83-b574-121119d4b07e}, !- Space Name
  Surface,                                !- Outside Boundary Condition
  {5e952088-a327-4a4d-b04e-52e2ff49ad35}, !- Outside Boundary Condition Object
  NoSun,                                  !- Sun Exposure
  NoWind,                                 !- Wind Exposure
  ,                                       !- View Factor to Ground
  ,                                       !- Number of Vertices
  0, 7.01040000037894, -4.44089209850063e-016, !- X,Y,Z Vertex 1 {m}
  11.2775999993904, 7.01040000037894, -4.44089209850063e-016, !- X,Y,Z Vertex 2 {m}
  11.2775999993904, 0, -4.44089209850063e-016, !- X,Y,Z Vertex 3 {m}
  0, 0, -4.44089209850063e-016;           !- X,Y,Z Vertex 4 {m}

OS:Surface,