!- NOTE: Auto-generated from /test/osw_files/SFD_HVACSizing_Equip_Dehumidifier_Fixed_Atlanta.osw

OS:Version,
  {64f80a09-836f-42a0-ab99-5205071f2724}, !- Handle
  2.6.2;                                  !- Version Identifier

OS:Building,
  {7ac4118c-183a-4427-8208-74ba368aa40f}, !- Handle
  Building 1,                             !- Name
  ,                                       !- Building Sector Type
  22.5,                                   !- North Axis {deg}
  ,                                       !- Nominal Floor to Floor Height {m}
  ,                                       !- Space Type Name
  ,                                       !- Default Construction Set Name
  ,                                       !- Default Schedule Set Name
  4,                                      !- Standards Number of Stories
  3,                                      !- Standards Number of Above Ground Stories
  singlefamilydetached,                   !- Standards Building Type
  1;                                      !- Standards Number of Living Units

OS:Facility,
  {3cccdaba-5435-4d07-a3c2-5cc8b16be0c5}; !- Handle

OS:Site,
  {fab0468f-c76d-450d-8577-0ab0e7fed40c}, !- Handle
  Atlanta Hartsfield Intl Ap_GA_USA,      !- Name
  33.63,                                  !- Latitude {deg}
  -84.43,                                 !- Longitude {deg}
  -5,                                     !- Time Zone {hr}
  308,                                    !- Elevation {m}
  Suburbs;                                !- Terrain

OS:SimulationControl,
  {27077827-ddb4-4857-bfd0-7f70005881e7}, !- Handle
  ,                                       !- Do Zone Sizing Calculation
  ,                                       !- Do System Sizing Calculation
  ,                                       !- Do Plant Sizing Calculation
  No;                                     !- Run Simulation for Sizing Periods

OS:Sizing:Parameters,
  {1985d36e-4266-41e4-b60d-bd2e4cbcc8e3}, !- Handle
  1.25,                                   !- Heating Sizing Factor
  1.15;                                   !- Cooling Sizing Factor

OS:Timestep,
  {6c0e3b96-a478-4aa0-986c-136e262d1b4f}, !- Handle
  6;                                      !- Number of Timesteps per Hour

OS:ShadowCalculation,
  {ea194a14-6f9b-4d4e-98ff-2a8791cdcfa8}, !- Handle
  20,                                     !- Calculation Frequency
  200;                                    !- Maximum Figures in Shadow Overlap Calculations

OS:HeatBalanceAlgorithm,
  {010c81a9-0568-4b94-b15d-e81b28b7af2f}, !- Handle
  ConductionTransferFunction,             !- Algorithm
  200;                                    !- Surface Temperature Upper Limit {C}

OS:RunPeriod,
  {2d1b68a8-5572-44b6-a2e5-096d37aec46f}, !- Handle
  Run Period 1,                           !- Name
  1,                                      !- Begin Month
  1,                                      !- Begin Day of Month
  12,                                     !- End Month
  31,                                     !- End Day of Month
  ,                                       !- Use Weather File Holidays and Special Days
  ,                                       !- Use Weather File Daylight Saving Period
  ,                                       !- Apply Weekend Holiday Rule
  ,                                       !- Use Weather File Rain Indicators
  ,                                       !- Use Weather File Snow Indicators
  ;                                       !- Number of Times Runperiod to be Repeated

OS:LifeCycleCost:Parameters,
  {4c122009-4f8c-4dd7-846f-dcc5a3fce12c}, !- Handle
  ,                                       !- Analysis Type
  ,                                       !- Discounting Convention
  ,                                       !- Inflation Approach
  ,                                       !- Real Discount Rate
  ,                                       !- Nominal Discount Rate
  ,                                       !- Inflation
  ,                                       !- Base Date Month
  ,                                       !- Base Date Year
  ,                                       !- Service Date Month
  ,                                       !- Service Date Year
  ;                                       !- Length of Study Period in Years

OS:SurfaceConvectionAlgorithm:Outside,
  {91a1b5a9-d7ab-4ee3-97ea-6528d16c7718}, !- Handle
  DOE-2;                                  !- Algorithm

OS:SurfaceConvectionAlgorithm:Inside,
  {c69f356d-506e-473f-a218-719ef49d5ddf}, !- Handle
  TARP;                                   !- Algorithm

OS:ZoneCapacitanceMultiplier:ResearchSpecial,
  {7828beda-ae3c-48e6-acf3-1678bb4a7e9a}, !- Handle
  ,                                       !- Temperature Capacity Multiplier
  15,                                     !- Humidity Capacity Multiplier
  ;                                       !- Carbon Dioxide Capacity Multiplier

OS:WeatherFile,
  {7a7de78a-41eb-4218-897f-6cc8a791c234}, !- Handle
  Atlanta Hartsfield Intl Ap,             !- City
  GA,                                     !- State Province Region
  USA,                                    !- Country
  TMY3,                                   !- Data Source
  722190,                                 !- WMO Number
  33.63,                                  !- Latitude {deg}
  -84.43,                                 !- Longitude {deg}
  -5,                                     !- Time Zone {hr}
  308,                                    !- Elevation {m}
  file:../tests/USA_GA_Atlanta-Hartsfield-Jackson.Intl.AP.722190_TMY3.epw, !- Url
  F0AA8FA7;                               !- Checksum

OS:BuildingUnit,
  {437ef7da-fb05-4e07-a40a-785e571b4785}, !- Handle
  EPWWeatherInfo,                         !- Name
  ,                                       !- Rendering Color
  Residential;                            !- Building Unit Type

OS:AdditionalProperties,
  {60f4e211-070b-44e5-ba6c-3f327f2eb8c8}, !- Handle
  {437ef7da-fb05-4e07-a40a-785e571b4785}, !- Object Name
  EPWHeaderCity,                          !- Feature Name 1
  String,                                 !- Feature Data Type 1
  Atlanta Hartsfield Intl Ap,             !- Feature Value 1
  EPWHeaderState,                         !- Feature Name 2
  String,                                 !- Feature Data Type 2
  GA,                                     !- Feature Value 2
  EPWHeaderCountry,                       !- Feature Name 3
  String,                                 !- Feature Data Type 3
  USA,                                    !- Feature Value 3
  EPWHeaderDataSource,                    !- Feature Name 4
  String,                                 !- Feature Data Type 4
  TMY3,                                   !- Feature Value 4
  EPWHeaderStation,                       !- Feature Name 5
  String,                                 !- Feature Data Type 5
  722190,                                 !- Feature Value 5
  EPWHeaderLatitude,                      !- Feature Name 6
  Double,                                 !- Feature Data Type 6
  33.630000000000003,                     !- Feature Value 6
  EPWHeaderLongitude,                     !- Feature Name 7
  Double,                                 !- Feature Data Type 7
  -84.430000000000007,                    !- Feature Value 7
  EPWHeaderTimezone,                      !- Feature Name 8
  Double,                                 !- Feature Data Type 8
  -5,                                     !- Feature Value 8
  EPWHeaderAltitude,                      !- Feature Name 9
  Double,                                 !- Feature Data Type 9
  1010.498687664042,                      !- Feature Value 9
  EPWHeaderLocalPressure,                 !- Feature Name 10
  Double,                                 !- Feature Data Type 10
  0.96349656938889539,                    !- Feature Value 10
  EPWDataAnnualAvgDrybulb,                !- Feature Name 11
  Double,                                 !- Feature Data Type 11
  61.975219178082227,                     !- Feature Value 11
  EPWDataAnnualMinDrybulb,                !- Feature Name 12
  Double,                                 !- Feature Data Type 12
  8.9599999999999973,                     !- Feature Value 12
  EPWDataAnnualMaxDrybulb,                !- Feature Name 13
  Double,                                 !- Feature Data Type 13
  98.060000000000002,                     !- Feature Value 13
  EPWDataCDD50F,                          !- Feature Name 14
  Double,                                 !- Feature Data Type 14
  5167.4549999999999,                     !- Feature Value 14
  EPWDataCDD65F,                          !- Feature Name 15
  Double,                                 !- Feature Data Type 15
  1722.3449999999996,                     !- Feature Value 15
  EPWDataHDD50F,                          !- Feature Name 16
  Double,                                 !- Feature Data Type 16
  796.49999999999966,                     !- Feature Value 16
  EPWDataHDD65F,                          !- Feature Name 17
  Double,                                 !- Feature Data Type 17
  2826.3900000000008,                     !- Feature Value 17
  EPWDataAnnualAvgWindspeed,              !- Feature Name 18
  Double,                                 !- Feature Data Type 18
  4.0382762557073244,                     !- Feature Value 18
  EPWDataMonthlyAvgDrybulbs,              !- Feature Name 19
  String,                                 !- Feature Data Type 19
  39.14217741935483&#4446.29312500000001&#4456.77129032258064&#4462.98849999999998&#4469.51064516129031&#4476.63525000000004&#4478.91685483870964&#4479.78104838709672&#4472.54099999999995&#4460.83895161290323&#4453.48324999999999&#4445.85540322580647, !- Feature Value 19
  EPWDataGroundMonthlyTemps,              !- Feature Name 20
  String,                                 !- Feature Data Type 20
  54.677026693263485&#4451.56886666200381&#4451.319954060175576&#4452.794934810798&#4458.716160600660885&#4464.60980280887844&#4469.7192756221221&#4472.95600098438916&#4473.23097858198247&#4470.59844651906309&#4465.61926826240398&#4459.90641899190797, !- Feature Value 20
  EPWDataWSF,                             !- Feature Name 21
  Double,                                 !- Feature Data Type 21
  0.46000000000000002,                    !- Feature Value 21
  EPWDataMonthlyAvgDailyHighDrybulbs,     !- Feature Name 22
  String,                                 !- Feature Data Type 22
  47.23032258064516&#4457.83642857142857&#4466.85032258064516&#4474.78&#4480.28064516129032&#4488.19600000000001&#4489.07741935483871&#4489.20516129032258&#4481.518&#4471.15870967741935&#4465.69&#4455.800645161290326, !- Feature Value 22
  EPWDataMonthlyAvgDailyLowDrybulbs,      !- Feature Name 23
  String,                                 !- Feature Data Type 23
  31.065161290322582&#4435.863571428571426&#4446.69032258064516&#4451.236000000000004&#4459.22064516129032&#4465.924&#4469.73612903225808&#4472.19806451612905&#4464.46600000000001&#4450.88258064516128&#4442.818&#4437.09806451612903, !- Feature Value 23
  EPWDesignHeatingDrybulb,                !- Feature Name 24
  Double,                                 !- Feature Data Type 24
  25.699999999999999,                     !- Feature Value 24
  EPWDesignHeatingWindspeed,              !- Feature Name 25
  Double,                                 !- Feature Data Type 25
  10.699999999999999,                     !- Feature Value 25
  EPWDesignCoolingDrybulb,                !- Feature Name 26
  Double,                                 !- Feature Data Type 26
  91.400000000000006,                     !- Feature Value 26
  EPWDesignCoolingWetbulb,                !- Feature Name 27
  Double,                                 !- Feature Data Type 27
  73.939999999999998,                     !- Feature Value 27
  EPWDesignCoolingHumidityRatio,          !- Feature Name 28
  Double,                                 !- Feature Data Type 28
  0.014532714185157248,                   !- Feature Value 28
  EPWDesignCoolingWindspeed,              !- Feature Name 29
  Double,                                 !- Feature Data Type 29
  4,                                      !- Feature Value 29
  EPWDesignDailyTemperatureRange,         !- Feature Name 30
  Double,                                 !- Feature Data Type 30
  17.100000000000001,                     !- Feature Value 30
  EPWDesignDehumidDrybulb,                !- Feature Name 31
  Double,                                 !- Feature Data Type 31
  79.340000000000003,                     !- Feature Value 31
  EPWDesignDehumidHumidityRatio,          !- Feature Name 32
  Double,                                 !- Feature Data Type 32
  0.017860837341798077,                   !- Feature Value 32
  EPWDesignCoolingDirectNormal,           !- Feature Name 33
  Double,                                 !- Feature Data Type 33
  908,                                    !- Feature Value 33
  EPWDesignCoolingDiffuseHorizontal,      !- Feature Name 34
  Double,                                 !- Feature Data Type 34
  120;                                    !- Feature Value 34

OS:YearDescription,
  {8c291223-8257-4260-b307-4fe4cc5d24b2}, !- Handle
  ,                                       !- Calendar Year
  Monday;                                 !- Day of Week for Start Day

OS:ClimateZones,
  {f59e396f-3fb4-4c9f-b89b-8a9cbc080236}, !- Handle
  ,                                       !- Active Institution
  ,                                       !- Active Year
  ,                                       !- Climate Zone Institution Name 1
  ,                                       !- Climate Zone Document Name 1
  ,                                       !- Climate Zone Document Year 1
  ,                                       !- Climate Zone Value 1
  Building America,                       !- Climate Zone Institution Name 2
  ,                                       !- Climate Zone Document Name 2
  0,                                      !- Climate Zone Document Year 2
  Mixed-Humid;                            !- Climate Zone Value 2

OS:Site:WaterMainsTemperature,
  {d2aff9db-76fa-4297-b94d-a4e2be5e59da}, !- Handle
  Correlation,                            !- Calculation Method
  ,                                       !- Temperature Schedule Name
  16.652899543379,                        !- Annual Average Outdoor Air Temperature {C}
  22.5771505376344;                       !- Maximum Difference In Monthly Average Outdoor Air Temperatures {deltaC}

OS:RunPeriodControl:DaylightSavingTime,
  {d920c179-f541-4967-b802-d39a84869392}, !- Handle
  4/7,                                    !- Start Date
  10/26;                                  !- End Date

OS:Site:GroundTemperature:Deep,
  {6e878ebe-225e-4143-9f34-6008ce5aa5c2}, !- Handle
  16.652899543379,                        !- January Deep Ground Temperature {C}
  16.652899543379,                        !- February Deep Ground Temperature {C}
  16.652899543379,                        !- March Deep Ground Temperature {C}
  16.652899543379,                        !- April Deep Ground Temperature {C}
  16.652899543379,                        !- May Deep Ground Temperature {C}
  16.652899543379,                        !- June Deep Ground Temperature {C}
  16.652899543379,                        !- July Deep Ground Temperature {C}
  16.652899543379,                        !- August Deep Ground Temperature {C}
  16.652899543379,                        !- September Deep Ground Temperature {C}
  16.652899543379,                        !- October Deep Ground Temperature {C}
  16.652899543379,                        !- November Deep Ground Temperature {C}
  16.652899543379;                        !- December Deep Ground Temperature {C}

OS:ThermalZone,
  {14c7685d-404c-493c-840c-1d9a751de9b3}, !- Handle
  living zone,                            !- Name
  ,                                       !- Multiplier
  ,                                       !- Ceiling Height {m}
  ,                                       !- Volume {m3}
  ,                                       !- Floor Area {m2}
  ,                                       !- Zone Inside Convection Algorithm
  ,                                       !- Zone Outside Convection Algorithm
  ,                                       !- Zone Conditioning Equipment List Name
  {597e5ceb-9e94-44b9-87a5-57782fde162f}, !- Zone Air Inlet Port List
  {a277130c-d8c7-4b8a-a55f-0e9d53ccde35}, !- Zone Air Exhaust Port List
  {6dda241f-e1c2-4a97-b286-09db947dcb0b}, !- Zone Air Node Name
  {859e6e56-99dc-4e31-a30b-e251a862e7ae}, !- Zone Return Air Port List
  ,                                       !- Primary Daylighting Control Name
  ,                                       !- Fraction of Zone Controlled by Primary Daylighting Control
  ,                                       !- Secondary Daylighting Control Name
  ,                                       !- Fraction of Zone Controlled by Secondary Daylighting Control
  ,                                       !- Illuminance Map Name
  ,                                       !- Group Rendering Name
  ,                                       !- Thermostat Name
  No,                                     !- Use Ideal Air Loads
  {c48d6bae-9836-44bd-9c05-7c7b1f4cb905}; !- Humidistat Name

OS:Node,
  {13e3c44a-e0e6-4b68-b3bc-1cf0f4999ed1}, !- Handle
  Node 1,                                 !- Name
  {6dda241f-e1c2-4a97-b286-09db947dcb0b}, !- Inlet Port
  ;                                       !- Outlet Port

OS:Connection,
  {6dda241f-e1c2-4a97-b286-09db947dcb0b}, !- Handle
  {8e25997a-e308-48d3-8788-004dce50039b}, !- Name
  {14c7685d-404c-493c-840c-1d9a751de9b3}, !- Source Object
  11,                                     !- Outlet Port
  {13e3c44a-e0e6-4b68-b3bc-1cf0f4999ed1}, !- Target Object
  2;                                      !- Inlet Port

OS:PortList,
  {597e5ceb-9e94-44b9-87a5-57782fde162f}, !- Handle
  {265bff8b-1dca-45ae-9b06-8430638ad4f1}, !- Name
  {14c7685d-404c-493c-840c-1d9a751de9b3}, !- HVAC Component
  {10cfbf45-ef1a-49cf-87ef-c44df57142f5}; !- Port 1

OS:PortList,
  {a277130c-d8c7-4b8a-a55f-0e9d53ccde35}, !- Handle
  {910b6db7-e009-47d5-abad-1525cb1b0dbd}, !- Name
  {14c7685d-404c-493c-840c-1d9a751de9b3}, !- HVAC Component
  {589487d7-5e02-4b81-87e4-2601032bbd8f}; !- Port 1

OS:PortList,
  {859e6e56-99dc-4e31-a30b-e251a862e7ae}, !- Handle
  {5fe0e5bd-b57a-4b44-b6b4-a6992f5ec0e5}, !- Name
  {14c7685d-404c-493c-840c-1d9a751de9b3}; !- HVAC Component

OS:Sizing:Zone,
  {37df9d93-d23c-4107-9c63-3a1c31739388}, !- Handle
  {14c7685d-404c-493c-840c-1d9a751de9b3}, !- Zone or ZoneList Name
  SupplyAirTemperature,                   !- Zone Cooling Design Supply Air Temperature Input Method
  14,                                     !- Zone Cooling Design Supply Air Temperature {C}
  11.11,                                  !- Zone Cooling Design Supply Air Temperature Difference {deltaC}
  SupplyAirTemperature,                   !- Zone Heating Design Supply Air Temperature Input Method
  40,                                     !- Zone Heating Design Supply Air Temperature {C}
  11.11,                                  !- Zone Heating Design Supply Air Temperature Difference {deltaC}
  0.0085,                                 !- Zone Cooling Design Supply Air Humidity Ratio {kg-H2O/kg-air}
  0.008,                                  !- Zone Heating Design Supply Air Humidity Ratio {kg-H2O/kg-air}
  ,                                       !- Zone Heating Sizing Factor
  ,                                       !- Zone Cooling Sizing Factor
  DesignDay,                              !- Cooling Design Air Flow Method
  ,                                       !- Cooling Design Air Flow Rate {m3/s}
  ,                                       !- Cooling Minimum Air Flow per Zone Floor Area {m3/s-m2}
  ,                                       !- Cooling Minimum Air Flow {m3/s}
  ,                                       !- Cooling Minimum Air Flow Fraction
  DesignDay,                              !- Heating Design Air Flow Method
  ,                                       !- Heating Design Air Flow Rate {m3/s}
  ,                                       !- Heating Maximum Air Flow per Zone Floor Area {m3/s-m2}
  ,                                       !- Heating Maximum Air Flow {m3/s}
  ,                                       !- Heating Maximum Air Flow Fraction
  ,                                       !- Design Zone Air Distribution Effectiveness in Cooling Mode
  ,                                       !- Design Zone Air Distribution Effectiveness in Heating Mode
  No,                                     !- Account for Dedicated Outdoor Air System
  NeutralSupplyAir,                       !- Dedicated Outdoor Air System Control Strategy
  autosize,                               !- Dedicated Outdoor Air Low Setpoint Temperature for Design {C}
  autosize;                               !- Dedicated Outdoor Air High Setpoint Temperature for Design {C}

OS:ZoneHVAC:EquipmentList,
  {2fdc89cf-249a-4940-9aa2-66459355bff4}, !- Handle
  Zone HVAC Equipment List 1,             !- Name
  {14c7685d-404c-493c-840c-1d9a751de9b3}, !- Thermal Zone
  SequentialLoad,                         !- Load Distribution Scheme
  {965b2430-010b-4e8f-bd6d-9e249729d557}, !- Zone Equipment 1
  1,                                      !- Zone Equipment Cooling Sequence 1
  1;                                      !- Zone Equipment Heating or No-Load Sequence 1

OS:ThermalZone,
  {2618c8d4-e541-44ef-b4ba-1ff0100a2234}, !- Handle
  garage zone,                            !- Name
  ,                                       !- Multiplier
  ,                                       !- Ceiling Height {m}
  ,                                       !- Volume {m3}
  ,                                       !- Floor Area {m2}
  ,                                       !- Zone Inside Convection Algorithm
  ,                                       !- Zone Outside Convection Algorithm
  ,                                       !- Zone Conditioning Equipment List Name
  {98dc2dea-9af1-423f-8627-53cbf027b35f}, !- Zone Air Inlet Port List
  {b37b1ab7-84b7-42ad-9b6f-c84e6300812c}, !- Zone Air Exhaust Port List
  {9ddf8c4e-55b9-475d-a0d6-52ffe00077f4}, !- Zone Air Node Name
  {9650d6af-0281-42bb-80d4-c87458ab45ce}, !- Zone Return Air Port List
  ,                                       !- Primary Daylighting Control Name
  ,                                       !- Fraction of Zone Controlled by Primary Daylighting Control
  ,                                       !- Secondary Daylighting Control Name
  ,                                       !- Fraction of Zone Controlled by Secondary Daylighting Control
  ,                                       !- Illuminance Map Name
  ,                                       !- Group Rendering Name
  ,                                       !- Thermostat Name
  No;                                     !- Use Ideal Air Loads

OS:Node,
  {19da4c19-389f-4038-8b4f-3ad6b8009453}, !- Handle
  Node 2,                                 !- Name
  {9ddf8c4e-55b9-475d-a0d6-52ffe00077f4}, !- Inlet Port
  ;                                       !- Outlet Port

OS:Connection,
  {9ddf8c4e-55b9-475d-a0d6-52ffe00077f4}, !- Handle
  {3e97708d-4350-471d-83c2-b12f37346e2e}, !- Name
  {2618c8d4-e541-44ef-b4ba-1ff0100a2234}, !- Source Object
  11,                                     !- Outlet Port
  {19da4c19-389f-4038-8b4f-3ad6b8009453}, !- Target Object
  2;                                      !- Inlet Port

OS:PortList,
  {98dc2dea-9af1-423f-8627-53cbf027b35f}, !- Handle
  {98a4496f-4d6c-48eb-95db-c2d18613410a}, !- Name
  {2618c8d4-e541-44ef-b4ba-1ff0100a2234}; !- HVAC Component

OS:PortList,
  {b37b1ab7-84b7-42ad-9b6f-c84e6300812c}, !- Handle
  {1ea9caf6-da1c-4a02-a7c1-a977fcb3f25e}, !- Name
  {2618c8d4-e541-44ef-b4ba-1ff0100a2234}; !- HVAC Component

OS:PortList,
  {9650d6af-0281-42bb-80d4-c87458ab45ce}, !- Handle
  {8167d4c5-1a4f-419a-ba0f-722906a7ab5b}, !- Name
  {2618c8d4-e541-44ef-b4ba-1ff0100a2234}; !- HVAC Component

OS:Sizing:Zone,
  {b6d4c069-5848-4872-a933-c096b52c687d}, !- Handle
  {2618c8d4-e541-44ef-b4ba-1ff0100a2234}, !- Zone or ZoneList Name
  SupplyAirTemperature,                   !- Zone Cooling Design Supply Air Temperature Input Method
  14,                                     !- Zone Cooling Design Supply Air Temperature {C}
  11.11,                                  !- Zone Cooling Design Supply Air Temperature Difference {deltaC}
  SupplyAirTemperature,                   !- Zone Heating Design Supply Air Temperature Input Method
  40,                                     !- Zone Heating Design Supply Air Temperature {C}
  11.11,                                  !- Zone Heating Design Supply Air Temperature Difference {deltaC}
  0.0085,                                 !- Zone Cooling Design Supply Air Humidity Ratio {kg-H2O/kg-air}
  0.008,                                  !- Zone Heating Design Supply Air Humidity Ratio {kg-H2O/kg-air}
  ,                                       !- Zone Heating Sizing Factor
  ,                                       !- Zone Cooling Sizing Factor
  DesignDay,                              !- Cooling Design Air Flow Method
  ,                                       !- Cooling Design Air Flow Rate {m3/s}
  ,                                       !- Cooling Minimum Air Flow per Zone Floor Area {m3/s-m2}
  ,                                       !- Cooling Minimum Air Flow {m3/s}
  ,                                       !- Cooling Minimum Air Flow Fraction
  DesignDay,                              !- Heating Design Air Flow Method
  ,                                       !- Heating Design Air Flow Rate {m3/s}
  ,                                       !- Heating Maximum Air Flow per Zone Floor Area {m3/s-m2}
  ,                                       !- Heating Maximum Air Flow {m3/s}
  ,                                       !- Heating Maximum Air Flow Fraction
  ,                                       !- Design Zone Air Distribution Effectiveness in Cooling Mode
  ,                                       !- Design Zone Air Distribution Effectiveness in Heating Mode
  No,                                     !- Account for Dedicated Outdoor Air System
  NeutralSupplyAir,                       !- Dedicated Outdoor Air System Control Strategy
  autosize,                               !- Dedicated Outdoor Air Low Setpoint Temperature for Design {C}
  autosize;                               !- Dedicated Outdoor Air High Setpoint Temperature for Design {C}

OS:ZoneHVAC:EquipmentList,
  {c2f56959-f864-47a3-a975-3edd0ab4ca9a}, !- Handle
  Zone HVAC Equipment List 2,             !- Name
  {2618c8d4-e541-44ef-b4ba-1ff0100a2234}; !- Thermal Zone

OS:Space,
  {ee5b279b-2f11-4175-b687-7e8b6a6fde64}, !- Handle
  garage space,                           !- Name
  {46defe3e-9c72-4e8d-82f8-29d451e54104}, !- Space Type Name
  ,                                       !- Default Construction Set Name
  ,                                       !- Default Schedule Set Name
  -0,                                     !- Direction of Relative North {deg}
  0,                                      !- X Origin {m}
  0,                                      !- Y Origin {m}
  0,                                      !- Z Origin {m}
  ,                                       !- Building Story Name
  {2618c8d4-e541-44ef-b4ba-1ff0100a2234}; !- Thermal Zone Name

OS:Surface,
  {4c5f0a08-44c6-430d-9854-7284dee6faf7}, !- Handle
  Surface 1,                              !- Name
  Floor,                                  !- Surface Type
  {4f52d998-2140-446c-8a58-e53c37ee9223}, !- Construction Name
  {ee5b279b-2f11-4175-b687-7e8b6a6fde64}, !- Space Name
  Foundation,                             !- Outside Boundary Condition
  {34170c40-683f-469c-bae1-742c94c23916}, !- Outside Boundary Condition Object
  NoSun,                                  !- Sun Exposure
  NoWind,                                 !- Wind Exposure
  ,                                       !- View Factor to Ground
  ,                                       !- Number of Vertices
  7.6199999993904, -3.048, 0,             !- X,Y,Z Vertex 1 {m}
  7.6199999993904, 3.048, 0,              !- X,Y,Z Vertex 2 {m}
  11.2775999993904, 3.048, 0,             !- X,Y,Z Vertex 3 {m}
  11.2775999993904, -3.048, 0;            !- X,Y,Z Vertex 4 {m}

OS:Surface,
  {6e2a8ee3-0cb4-40d9-b18d-d8b52df367ab}, !- Handle
  Surface 2,                              !- Name
  Wall,                                   !- Surface Type
  {96db86c1-c94e-47b0-862e-2e37165f1565}, !- Construction Name
  {ee5b279b-2f11-4175-b687-7e8b6a6fde64}, !- Space Name
  Surface,                                !- Outside Boundary Condition
  {b8b8d8a7-c4fa-471a-bde1-15396fd48ab0}, !- Outside Boundary Condition Object
  NoSun,                                  !- Sun Exposure
  NoWind,                                 !- Wind Exposure
  ,                                       !- View Factor to Ground
  ,                                       !- Number of Vertices
  7.6199999993904, 3.048, 2.4384,         !- X,Y,Z Vertex 1 {m}
  7.6199999993904, 3.048, 0,              !- X,Y,Z Vertex 2 {m}
  7.6199999993904, 0, 0,                  !- X,Y,Z Vertex 3 {m}
  7.6199999993904, 0, 2.4384;             !- X,Y,Z Vertex 4 {m}

OS:Surface,
  {7c8f6a39-4600-4a9e-bb2e-e71310d1fbff}, !- Handle
  Surface 3,                              !- Name
  Wall,                                   !- Surface Type
  {96db86c1-c94e-47b0-862e-2e37165f1565}, !- Construction Name
  {ee5b279b-2f11-4175-b687-7e8b6a6fde64}, !- Space Name
  Surface,                                !- Outside Boundary Condition