!- NOTE: Auto-generated from /test/osw_files/SFD_HVACSizing_Equip_ASHPV_Fixed.osw

OS:Version,
  {97d2c16f-aeef-4a19-8c1b-2c3890cd16b8}, !- Handle
  2.6.1;                                  !- Version Identifier

OS:Building,
  {b0800f82-e64f-4a26-b355-acb2394bd4ea}, !- Handle
  Building 1,                             !- Name
  ,                                       !- Building Sector Type
  22.5,                                   !- North Axis {deg}
  ,                                       !- Nominal Floor to Floor Height {m}
  ,                                       !- Space Type Name
  ,                                       !- Default Construction Set Name
  ,                                       !- Default Schedule Set Name
  4,                                      !- Standards Number of Stories
  3,                                      !- Standards Number of Above Ground Stories
  singlefamilydetached,                   !- Standards Building Type
  1;                                      !- Standards Number of Living Units

OS:Facility,
  {ee47e983-fdf6-493f-a076-b10d5aa09bcc}; !- Handle

OS:Site,
  {e8e3a88f-9f1d-4cf1-8639-fc64bbabcf0d}, !- Handle
  Denver Intl Ap_CO_USA,                  !- Name
  39.83,                                  !- Latitude {deg}
  -104.65,                                !- Longitude {deg}
  -7,                                     !- Time Zone {hr}
  1650,                                   !- Elevation {m}
  Suburbs;                                !- Terrain

OS:SimulationControl,
  {20c4cbb7-59cf-4648-9461-1416e9467694}, !- Handle
  ,                                       !- Do Zone Sizing Calculation
  ,                                       !- Do System Sizing Calculation
  ,                                       !- Do Plant Sizing Calculation
  No;                                     !- Run Simulation for Sizing Periods

OS:Sizing:Parameters,
  {920f6588-67ff-4299-a3d0-e3e8cdbf6a0e}, !- Handle
  1.25,                                   !- Heating Sizing Factor
  1.15;                                   !- Cooling Sizing Factor

OS:Timestep,
  {d9e0a064-6e04-4a79-9a90-f85e19abd4a2}, !- Handle
  6;                                      !- Number of Timesteps per Hour

OS:ShadowCalculation,
  {54ce7772-4d1f-43a8-878a-b995083f1d92}, !- Handle
  20,                                     !- Calculation Frequency
  200;                                    !- Maximum Figures in Shadow Overlap Calculations

OS:HeatBalanceAlgorithm,
  {ed5db6c3-994f-4c73-899a-687137b6e15b}, !- Handle
  ConductionTransferFunction,             !- Algorithm
  200;                                    !- Surface Temperature Upper Limit {C}

OS:RunPeriod,
  {97d05546-9015-4f34-921b-6c775db62114}, !- Handle
  Run Period 1,                           !- Name
  1,                                      !- Begin Month
  1,                                      !- Begin Day of Month
  12,                                     !- End Month
  31,                                     !- End Day of Month
  ,                                       !- Use Weather File Holidays and Special Days
  ,                                       !- Use Weather File Daylight Saving Period
  ,                                       !- Apply Weekend Holiday Rule
  ,                                       !- Use Weather File Rain Indicators
  ,                                       !- Use Weather File Snow Indicators
  ;                                       !- Number of Times Runperiod to be Repeated

OS:LifeCycleCost:Parameters,
  {5594cafa-2945-4b54-9046-c58201b274ea}, !- Handle
  ,                                       !- Analysis Type
  ,                                       !- Discounting Convention
  ,                                       !- Inflation Approach
  ,                                       !- Real Discount Rate
  ,                                       !- Nominal Discount Rate
  ,                                       !- Inflation
  ,                                       !- Base Date Month
  ,                                       !- Base Date Year
  ,                                       !- Service Date Month
  ,                                       !- Service Date Year
  ;                                       !- Length of Study Period in Years

OS:SurfaceConvectionAlgorithm:Outside,
  {31fd8bfb-fb01-4a73-be97-c50a21f1221c}, !- Handle
  DOE-2;                                  !- Algorithm

OS:SurfaceConvectionAlgorithm:Inside,
  {62bb401b-25d6-4779-812f-fedcf168ff46}, !- Handle
  TARP;                                   !- Algorithm

OS:ZoneCapacitanceMultiplier:ResearchSpecial,
  {65f7c6bc-406a-487a-a9c5-989caf33f41f}, !- Handle
  ,                                       !- Temperature Capacity Multiplier
  15,                                     !- Humidity Capacity Multiplier
  ;                                       !- Carbon Dioxide Capacity Multiplier

OS:WeatherFile,
  {8f76a541-d187-4862-a071-78047885c9a9}, !- Handle
  Denver Intl Ap,                         !- City
  CO,                                     !- State Province Region
  USA,                                    !- Country
  TMY3,                                   !- Data Source
  725650,                                 !- WMO Number
  39.83,                                  !- Latitude {deg}
  -104.65,                                !- Longitude {deg}
  -7,                                     !- Time Zone {hr}
  1650,                                   !- Elevation {m}
  file:../tests/USA_CO_Denver_Intl_AP_725650_TMY3.epw, !- Url
  E23378AA;                               !- Checksum

OS:BuildingUnit,
  {f5af5037-c59f-430a-8d3b-b5f9ab4e6a78}, !- Handle
  EPWWeatherInfo,                         !- Name
  ,                                       !- Rendering Color
  Residential;                            !- Building Unit Type

OS:AdditionalProperties,
  {c7a30d6b-d291-402f-9e1b-7414137e9fe4}, !- Handle
  {f5af5037-c59f-430a-8d3b-b5f9ab4e6a78}, !- Object Name
  EPWHeaderCity,                          !- Feature Name 1
  String,                                 !- Feature Data Type 1
  Denver Intl Ap,                         !- Feature Value 1
  EPWHeaderState,                         !- Feature Name 2
  String,                                 !- Feature Data Type 2
  CO,                                     !- Feature Value 2
  EPWHeaderCountry,                       !- Feature Name 3
  String,                                 !- Feature Data Type 3
  USA,                                    !- Feature Value 3
  EPWHeaderDataSource,                    !- Feature Name 4
  String,                                 !- Feature Data Type 4
  TMY3,                                   !- Feature Value 4
  EPWHeaderStation,                       !- Feature Name 5
  String,                                 !- Feature Data Type 5
  725650,                                 !- Feature Value 5
  EPWHeaderLatitude,                      !- Feature Name 6
  Double,                                 !- Feature Data Type 6
  39.829999999999998,                     !- Feature Value 6
  EPWHeaderLongitude,                     !- Feature Name 7
  Double,                                 !- Feature Data Type 7
  -104.65000000000001,                    !- Feature Value 7
  EPWHeaderTimezone,                      !- Feature Name 8
  Double,                                 !- Feature Data Type 8
  -7,                                     !- Feature Value 8
  EPWHeaderAltitude,                      !- Feature Name 9
  Double,                                 !- Feature Data Type 9
  5413.3858267716532,                     !- Feature Value 9
  EPWHeaderLocalPressure,                 !- Feature Name 10
  Double,                                 !- Feature Data Type 10
  0.81937567683596546,                    !- Feature Value 10
  EPWDataAnnualAvgDrybulb,                !- Feature Name 11
  Double,                                 !- Feature Data Type 11
  51.575616438356228,                     !- Feature Value 11
  EPWDataAnnualMinDrybulb,                !- Feature Name 12
  Double,                                 !- Feature Data Type 12
  -2.9200000000000017,                    !- Feature Value 12
  EPWDataAnnualMaxDrybulb,                !- Feature Name 13
  Double,                                 !- Feature Data Type 13
  104,                                    !- Feature Value 13
  EPWDataCDD50F,                          !- Feature Name 14
  Double,                                 !- Feature Data Type 14
  3072.2925000000005,                     !- Feature Value 14
  EPWDataCDD65F,                          !- Feature Name 15
  Double,                                 !- Feature Data Type 15
  883.62000000000035,                     !- Feature Value 15
  EPWDataHDD50F,                          !- Feature Name 16
  Double,                                 !- Feature Data Type 16
  2497.1925000000001,                     !- Feature Value 16
  EPWDataHDD65F,                          !- Feature Name 17
  Double,                                 !- Feature Data Type 17
  5783.5200000000013,                     !- Feature Value 17
  EPWDataAnnualAvgWindspeed,              !- Feature Name 18
  Double,                                 !- Feature Data Type 18
  3.9165296803649667,                     !- Feature Value 18
  EPWDataMonthlyAvgDrybulbs,              !- Feature Name 19
  String,                                 !- Feature Data Type 19
  33.4191935483871&#4431.90142857142857&#4443.02620967741937&#4442.48624999999999&#4459.877741935483854&#4473.57574999999997&#4472.07975806451608&#4472.70008064516134&#4466.49200000000006&#4450.079112903225806&#4437.218250000000005&#4434.582177419354835, !- Feature Value 19
  EPWDataGroundMonthlyTemps,              !- Feature Name 20
  String,                                 !- Feature Data Type 20
  44.08306285945173&#4440.89570904991865&#4440.64045432632048&#4442.153016571250646&#4448.225111118704206&#4454.268919273837525&#4459.508577937551024&#4462.82777283423508&#4463.10975667174995&#4460.41014950381947&#4455.304105212311526&#4449.445696474514364, !- Feature Value 20
  EPWDataWSF,                             !- Feature Name 21
  Double,                                 !- Feature Data Type 21
  0.58999999999999997,                    !- Feature Value 21
  EPWDataMonthlyAvgDailyHighDrybulbs,     !- Feature Name 22
  String,                                 !- Feature Data Type 22
  47.41032258064516&#4446.58642857142857&#4455.15032258064517&#4453.708&#4472.80193548387098&#4488.67600000000002&#4486.1858064516129&#4485.87225806451613&#4482.082&#4463.18064516129033&#4448.73400000000001&#4448.87935483870968, !- Feature Value 22
  EPWDataMonthlyAvgDailyLowDrybulbs,      !- Feature Name 23
  String,                                 !- Feature Data Type 23
  19.347741935483874&#4419.856428571428573&#4430.316129032258065&#4431.112&#4447.41612903225806&#4457.901999999999994&#4459.063870967741934&#4460.956774193548384&#4452.352000000000004&#4438.41612903225806&#4427.002000000000002&#4423.02903225806451, !- Feature Value 23
  EPWDesignHeatingDrybulb,                !- Feature Name 24
  Double,                                 !- Feature Data Type 24
  6.8000000000000007,                     !- Feature Value 24
  EPWDesignHeatingWindspeed,              !- Feature Name 25
  Double,                                 !- Feature Data Type 25
  12,                                     !- Feature Value 25
  EPWDesignCoolingDrybulb,                !- Feature Name 26
  Double,                                 !- Feature Data Type 26
  91.760000000000005,                     !- Feature Value 26
  EPWDesignCoolingWetbulb,                !- Feature Name 27
  Double,                                 !- Feature Data Type 27
  60.079999999999998,                     !- Feature Value 27
  EPWDesignCoolingHumidityRatio,          !- Feature Name 28
  Double,                                 !- Feature Data Type 28
  0.006050392196571398,                   !- Feature Value 28
  EPWDesignCoolingWindspeed,              !- Feature Name 29
  Double,                                 !- Feature Data Type 29
  4.2000000000000002,                     !- Feature Value 29
  EPWDesignDailyTemperatureRange,         !- Feature Name 30
  Double,                                 !- Feature Data Type 30
  27.359999999999999,                     !- Feature Value 30
  EPWDesignDehumidDrybulb,                !- Feature Name 31
  Double,                                 !- Feature Data Type 31
  67.280000000000001,                     !- Feature Value 31
  EPWDesignDehumidHumidityRatio,          !- Feature Name 32
  Double,                                 !- Feature Data Type 32
  0.012295426899271008,                   !- Feature Value 32
  EPWDesignCoolingDirectNormal,           !- Feature Name 33
  Double,                                 !- Feature Data Type 33
  985,                                    !- Feature Value 33
  EPWDesignCoolingDiffuseHorizontal,      !- Feature Name 34
  Double,                                 !- Feature Data Type 34
  84;                                     !- Feature Value 34

OS:YearDescription,
  {0a1ea9e1-11ed-4ed9-a86c-067776e3a070}, !- Handle
  ,                                       !- Calendar Year
  Monday;                                 !- Day of Week for Start Day

OS:ClimateZones,
  {4713a7c4-e30b-4468-a514-8144e2e526f2}, !- Handle
  ,                                       !- Active Institution
  ,                                       !- Active Year
  ,                                       !- Climate Zone Institution Name 1
  ,                                       !- Climate Zone Document Name 1
  ,                                       !- Climate Zone Document Year 1
  ,                                       !- Climate Zone Value 1
  Building America,                       !- Climate Zone Institution Name 2
  ,                                       !- Climate Zone Document Name 2
  0,                                      !- Climate Zone Document Year 2
  Cold;                                   !- Climate Zone Value 2

OS:Site:WaterMainsTemperature,
  {477ee1ee-ae28-46d6-8f2f-99fa09e5e1ea}, !- Handle
  Correlation,                            !- Calculation Method
  ,                                       !- Temperature Schedule Name
  10.8753424657535,                       !- Annual Average Outdoor Air Temperature {C}
  23.1524007936508;                       !- Maximum Difference In Monthly Average Outdoor Air Temperatures {deltaC}

OS:RunPeriodControl:DaylightSavingTime,
  {c93695ec-b831-42d0-9732-71b114f8b805}, !- Handle
  4/7,                                    !- Start Date
  10/26;                                  !- End Date

OS:Site:GroundTemperature:Deep,
  {ca813b72-aa49-4520-89ea-47edde1169a7}, !- Handle
  10.8753424657535,                       !- January Deep Ground Temperature {C}
  10.8753424657535,                       !- February Deep Ground Temperature {C}
  10.8753424657535,                       !- March Deep Ground Temperature {C}
  10.8753424657535,                       !- April Deep Ground Temperature {C}
  10.8753424657535,                       !- May Deep Ground Temperature {C}
  10.8753424657535,                       !- June Deep Ground Temperature {C}
  10.8753424657535,                       !- July Deep Ground Temperature {C}
  10.8753424657535,                       !- August Deep Ground Temperature {C}
  10.8753424657535,                       !- September Deep Ground Temperature {C}
  10.8753424657535,                       !- October Deep Ground Temperature {C}
  10.8753424657535,                       !- November Deep Ground Temperature {C}
  10.8753424657535;                       !- December Deep Ground Temperature {C}

OS:ThermalZone,
  {470244f3-0cf8-4757-8ee2-150c715835d5}, !- Handle
  living zone,                            !- Name
  ,                                       !- Multiplier
  ,                                       !- Ceiling Height {m}
  ,                                       !- Volume {m3}
  ,                                       !- Floor Area {m2}
  ,                                       !- Zone Inside Convection Algorithm
  ,                                       !- Zone Outside Convection Algorithm
  ,                                       !- Zone Conditioning Equipment List Name
  {6f3f092e-4891-4893-8c9e-4db76004ff37}, !- Zone Air Inlet Port List
  {5da71773-f20c-4195-924c-c227a85d723a}, !- Zone Air Exhaust Port List
  {fd254414-e73d-4c21-9286-b80636345ab9}, !- Zone Air Node Name
  {c0d4839b-48c2-45f5-a29c-7b5fea26e41d}, !- Zone Return Air Port List
  ,                                       !- Primary Daylighting Control Name
  ,                                       !- Fraction of Zone Controlled by Primary Daylighting Control
  ,                                       !- Secondary Daylighting Control Name
  ,                                       !- Fraction of Zone Controlled by Secondary Daylighting Control
  ,                                       !- Illuminance Map Name
  ,                                       !- Group Rendering Name
  {82925add-a595-4159-bc61-15e02137e9d1}, !- Thermostat Name
  No;                                     !- Use Ideal Air Loads

OS:Node,
  {cbb5e1fd-6bcb-4baf-bc0e-94d8621ec000}, !- Handle
  Node 1,                                 !- Name
  {fd254414-e73d-4c21-9286-b80636345ab9}, !- Inlet Port
  ;                                       !- Outlet Port

OS:Connection,
  {fd254414-e73d-4c21-9286-b80636345ab9}, !- Handle
  {f32bc8c0-eb02-4c3f-bceb-9a9be715054f}, !- Name
  {470244f3-0cf8-4757-8ee2-150c715835d5}, !- Source Object
  11,                                     !- Outlet Port
  {cbb5e1fd-6bcb-4baf-bc0e-94d8621ec000}, !- Target Object
  2;                                      !- Inlet Port

OS:PortList,
  {6f3f092e-4891-4893-8c9e-4db76004ff37}, !- Handle
  {41f4ab88-01ff-47b9-9726-73b52ab48c25}, !- Name
  {470244f3-0cf8-4757-8ee2-150c715835d5}, !- HVAC Component
  {ea42904b-2d02-4fbe-9842-4f08d6b526ab}; !- Port 1

OS:PortList,
  {5da71773-f20c-4195-924c-c227a85d723a}, !- Handle
  {043fda67-fffa-4cd3-9c00-ba4f28d6ce5f}, !- Name
  {470244f3-0cf8-4757-8ee2-150c715835d5}; !- HVAC Component

OS:PortList,
  {c0d4839b-48c2-45f5-a29c-7b5fea26e41d}, !- Handle
  {533f7c48-399d-4b08-9891-734e0eef67b3}, !- Name
  {470244f3-0cf8-4757-8ee2-150c715835d5}, !- HVAC Component
  {c43f4264-73d9-4bb6-a5da-91250d6ac5d5}; !- Port 1

OS:Sizing:Zone,
  {f8685e4f-96ef-4dd9-b55b-83faf3ba7d68}, !- Handle
  {470244f3-0cf8-4757-8ee2-150c715835d5}, !- Zone or ZoneList Name
  SupplyAirTemperature,                   !- Zone Cooling Design Supply Air Temperature Input Method
  14,                                     !- Zone Cooling Design Supply Air Temperature {C}
  11.11,                                  !- Zone Cooling Design Supply Air Temperature Difference {deltaC}
  SupplyAirTemperature,                   !- Zone Heating Design Supply Air Temperature Input Method
  40,                                     !- Zone Heating Design Supply Air Temperature {C}
  11.11,                                  !- Zone Heating Design Supply Air Temperature Difference {deltaC}
  0.0085,                                 !- Zone Cooling Design Supply Air Humidity Ratio {kg-H2O/kg-air}
  0.008,                                  !- Zone Heating Design Supply Air Humidity Ratio {kg-H2O/kg-air}
  ,                                       !- Zone Heating Sizing Factor
  ,                                       !- Zone Cooling Sizing Factor
  DesignDay,                              !- Cooling Design Air Flow Method
  ,                                       !- Cooling Design Air Flow Rate {m3/s}
  ,                                       !- Cooling Minimum Air Flow per Zone Floor Area {m3/s-m2}
  ,                                       !- Cooling Minimum Air Flow {m3/s}
  ,                                       !- Cooling Minimum Air Flow Fraction
  DesignDay,                              !- Heating Design Air Flow Method
  ,                                       !- Heating Design Air Flow Rate {m3/s}
  ,                                       !- Heating Maximum Air Flow per Zone Floor Area {m3/s-m2}
  ,                                       !- Heating Maximum Air Flow {m3/s}
  ,                                       !- Heating Maximum Air Flow Fraction
  ,                                       !- Design Zone Air Distribution Effectiveness in Cooling Mode
  ,                                       !- Design Zone Air Distribution Effectiveness in Heating Mode
  No,                                     !- Account for Dedicated Outdoor Air System
  NeutralSupplyAir,                       !- Dedicated Outdoor Air System Control Strategy
  autosize,                               !- Dedicated Outdoor Air Low Setpoint Temperature for Design {C}
  autosize;                               !- Dedicated Outdoor Air High Setpoint Temperature for Design {C}

OS:ZoneHVAC:EquipmentList,
  {3d9df59d-c32e-46c8-9510-225b727bcb4a}, !- Handle
  Zone HVAC Equipment List 1,             !- Name
  {470244f3-0cf8-4757-8ee2-150c715835d5}, !- Thermal Zone
  {77831148-d468-463c-ae9b-e081e21b4d88}, !- Zone Equipment 1
  1,                                      !- Zone Equipment Cooling Sequence 1
  1;                                      !- Zone Equipment Heating or No-Load Sequence 1

OS:ThermalZone,
  {80a96934-d54d-4540-8fc6-5822a31d3049}, !- Handle
  garage zone,                            !- Name
  ,                                       !- Multiplier
  ,                                       !- Ceiling Height {m}
  ,                                       !- Volume {m3}
  ,                                       !- Floor Area {m2}
  ,                                       !- Zone Inside Convection Algorithm
  ,                                       !- Zone Outside Convection Algorithm
  ,                                       !- Zone Conditioning Equipment List Name
  {6a0a86a3-fa60-4281-8850-10e1f73a7d27}, !- Zone Air Inlet Port List
  {cc76bbc9-1ca9-4868-b104-7a162f8045c0}, !- Zone Air Exhaust Port List
  {acfb18f7-c8d5-4e28-ace2-88ca483f0b5c}, !- Zone Air Node Name
  {5aeff745-ddb0-4d4a-af5d-e8857715015e}, !- Zone Return Air Port List
  ,                                       !- Primary Daylighting Control Name
  ,                                       !- Fraction of Zone Controlled by Primary Daylighting Control
  ,                                       !- Secondary Daylighting Control Name
  ,                                       !- Fraction of Zone Controlled by Secondary Daylighting Control
  ,                                       !- Illuminance Map Name
  ,                                       !- Group Rendering Name
  ,                                       !- Thermostat Name
  No;                                     !- Use Ideal Air Loads

OS:Node,
  {e75e6019-37ae-4aed-95e7-251f266268d8}, !- Handle
  Node 2,                                 !- Name
  {acfb18f7-c8d5-4e28-ace2-88ca483f0b5c}, !- Inlet Port
  ;                                       !- Outlet Port

OS:Connection,
  {acfb18f7-c8d5-4e28-ace2-88ca483f0b5c}, !- Handle
  {4e457361-88cf-44a4-b28a-92ac2d6ff19f}, !- Name
  {80a96934-d54d-4540-8fc6-5822a31d3049}, !- Source Object
  11,                                     !- Outlet Port
  {e75e6019-37ae-4aed-95e7-251f266268d8}, !- Target Object
  2;                                      !- Inlet Port

OS:PortList,
  {6a0a86a3-fa60-4281-8850-10e1f73a7d27}, !- Handle
  {af5df8ac-0fda-4a5b-a8f4-1ceaf9f7e587}, !- Name
  {80a96934-d54d-4540-8fc6-5822a31d3049}; !- HVAC Component

OS:PortList,
  {cc76bbc9-1ca9-4868-b104-7a162f8045c0}, !- Handle
  {72b31571-7819-45cb-9e86-a08a653b4591}, !- Name
  {80a96934-d54d-4540-8fc6-5822a31d3049}; !- HVAC Component

OS:PortList,
  {5aeff745-ddb0-4d4a-af5d-e8857715015e}, !- Handle
  {dde573cf-2972-4d10-8c51-e2e839b599a7}, !- Name
  {80a96934-d54d-4540-8fc6-5822a31d3049}; !- HVAC Component

OS:Sizing:Zone,
  {80f330c3-9471-4e14-ac5b-2a9266a04015}, !- Handle
  {80a96934-d54d-4540-8fc6-5822a31d3049}, !- Zone or ZoneList Name
  SupplyAirTemperature,                   !- Zone Cooling Design Supply Air Temperature Input Method
  14,                                     !- Zone Cooling Design Supply Air Temperature {C}
  11.11,                                  !- Zone Cooling Design Supply Air Temperature Difference {deltaC}
  SupplyAirTemperature,                   !- Zone Heating Design Supply Air Temperature Input Method
  40,                                     !- Zone Heating Design Supply Air Temperature {C}
  11.11,                                  !- Zone Heating Design Supply Air Temperature Difference {deltaC}
  0.0085,                                 !- Zone Cooling Design Supply Air Humidity Ratio {kg-H2O/kg-air}
  0.008,                                  !- Zone Heating Design Supply Air Humidity Ratio {kg-H2O/kg-air}
  ,                                       !- Zone Heating Sizing Factor
  ,                                       !- Zone Cooling Sizing Factor
  DesignDay,                              !- Cooling Design Air Flow Method
  ,                                       !- Cooling Design Air Flow Rate {m3/s}
  ,                                       !- Cooling Minimum Air Flow per Zone Floor Area {m3/s-m2}
  ,                                       !- Cooling Minimum Air Flow {m3/s}
  ,                                       !- Cooling Minimum Air Flow Fraction
  DesignDay,                              !- Heating Design Air Flow Method
  ,                                       !- Heating Design Air Flow Rate {m3/s}
  ,                                       !- Heating Maximum Air Flow per Zone Floor Area {m3/s-m2}
  ,                                       !- Heating Maximum Air Flow {m3/s}
  ,                                       !- Heating Maximum Air Flow Fraction
  ,                                       !- Design Zone Air Distribution Effectiveness in Cooling Mode
  ,                                       !- Design Zone Air Distribution Effectiveness in Heating Mode
  No,                                     !- Account for Dedicated Outdoor Air System
  NeutralSupplyAir,                       !- Dedicated Outdoor Air System Control Strategy
  autosize,                               !- Dedicated Outdoor Air Low Setpoint Temperature for Design {C}
  autosize;                               !- Dedicated Outdoor Air High Setpoint Temperature for Design {C}

OS:ZoneHVAC:EquipmentList,
  {089841ff-0480-4011-93b4-12bb13721091}, !- Handle
  Zone HVAC Equipment List 2,             !- Name
  {80a96934-d54d-4540-8fc6-5822a31d3049}; !- Thermal Zone

OS:Space,
  {912958e0-0d78-4bda-a689-423462741c28}, !- Handle
  garage space,                           !- Name
  {11778e8f-ca41-4eee-834f-af594e5a376d}, !- Space Type Name
  ,                                       !- Default Construction Set Name
  ,                                       !- Default Schedule Set Name
  -0,                                     !- Direction of Relative North {deg}
  0,                                      !- X Origin {m}
  0,                                      !- Y Origin {m}
  0,                                      !- Z Origin {m}
  ,                                       !- Building Story Name
  {80a96934-d54d-4540-8fc6-5822a31d3049}; !- Thermal Zone Name

OS:Surface,
  {31b485bf-20a0-4070-b840-96bdcb1fdfd6}, !- Handle
  Surface 1,                              !- Name
  Floor,                                  !- Surface Type
  {d4849cb2-179c-4ecd-8ffb-de770fca9950}, !- Construction Name
  {912958e0-0d78-4bda-a689-423462741c28}, !- Space Name
  Foundation,                             !- Outside Boundary Condition
  {2a562915-5dfa-4daf-a7df-493c37eebcc0}, !- Outside Boundary Condition Object
  NoSun,                                  !- Sun Exposure
  NoWind,                                 !- Wind Exposure
  ,                                       !- View Factor to Ground
  ,                                       !- Number of Vertices
  7.6199999993904, -3.048, 0,             !- X,Y,Z Vertex 1 {m}
  7.6199999993904, 3.048, 0,              !- X,Y,Z Vertex 2 {m}
  11.2775999993904, 3.048, 0,             !- X,Y,Z Vertex 3 {m}
  11.2775999993904, -3.048, 0;            !- X,Y,Z Vertex 4 {m}

OS:Surface,
  {3828f6df-3c84-4cca-b657-afe0870a20d1}, !- Handle
  Surface 2,                              !- Name
  Wall,                                   !- Surface Type
  {6b56f488-fb1e-493b-bbc3-0ccfa27501ef}, !- Construction Name
  {912958e0-0d78-4bda-a689-423462741c28}, !- Space Name
  Surface,                                !- Outside Boundary Condition
  {12c9dd4d-80a9-405c-87b4-45fdb3897e10}, !- Outside Boundary Condition Object
  NoSun,                                  !- Sun Exposure
  NoWind,                                 !- Wind Exposure
  ,                                       !- View Factor to Ground
  ,                                       !- Number of Vertices
  7.6199999993904, 3.048, 2.4384,         !- X,Y,Z Vertex 1 {m}
  7.6199999993904, 3.048, 0,              !- X,Y,Z Vertex 2 {m}
  7.6199999993904, 0, 0,                  !- X,Y,Z Vertex 3 {m}
  7.6199999993904, 0, 2.4384;             !- X,Y,Z Vertex 4 {m}

OS:Surface,
  {c7d0a07c-d833-4545-b3f1-94cdcc6bc7e4}, !- Handle
  Surface 3,                              !- Name
  Wall,                                   !- Surface Type
  {6b56f488-fb1e-493b-bbc3-0ccfa27501ef}, !- Construction Name
  {912958e0-0d78-4bda-a689-423462741c28}, !- Space Name
  Surface,                                !- Outside Boundary Condition
  {dfefaf61-6b02-4064-9444-3d7958d8ebe0}, !- Outside Boundary Condition Object
  NoSun,                                  !- Sun Exposure