!- NOTE: Auto-generated from /test/osw_files/SFA_4units_1story_FB_UA_Denver.osw

OS:Version,
  {743e6bc9-f596-4d6c-a9c9-2c5569188d4a}, !- Handle
  2.7.0;                                  !- Version Identifier

OS:Building,
  {5bf9eab7-f6c4-49b9-8c87-399d6496db0d}, !- Handle
  Building 1,                             !- Name
  ,                                       !- Building Sector Type
  0,                                      !- North Axis {deg}
  ,                                       !- Nominal Floor to Floor Height {m}
  ,                                       !- Space Type Name
  ,                                       !- Default Construction Set Name
  ,                                       !- Default Schedule Set Name
  2,                                      !- Standards Number of Stories
  1,                                      !- Standards Number of Above Ground Stories
  ,                                       !- Standards Template
  singlefamilyattached,                   !- Standards Building Type
  4;                                      !- Standards Number of Living Units

OS:Facility,
  {36aa1ded-8f1a-4c20-9bfd-80d434b7f72a}; !- Handle

OS:Site,
  {d506609d-a4cd-4474-90dc-565c491e88f7}, !- Handle
  Denver Intl Ap_CO_USA,                  !- Name
  39.83,                                  !- Latitude {deg}
  -104.65,                                !- Longitude {deg}
  -7,                                     !- Time Zone {hr}
  1650,                                   !- Elevation {m}
  ;                                       !- Terrain

OS:SimulationControl,
  {44737b99-b36b-4e75-bda9-96c0d632cda1}, !- Handle
  ,                                       !- Do Zone Sizing Calculation
  ,                                       !- Do System Sizing Calculation
  ,                                       !- Do Plant Sizing Calculation
  No;                                     !- Run Simulation for Sizing Periods

OS:Sizing:Parameters,
  {4b43eb8c-9bac-4206-a0de-240cf2ae1e5d}, !- Handle
  1.25,                                   !- Heating Sizing Factor
  1.15;                                   !- Cooling Sizing Factor

OS:Timestep,
  {bca00699-e2e0-4ae7-ab7c-c80612caa0fc}, !- Handle
  6;                                      !- Number of Timesteps per Hour

OS:ShadowCalculation,
  {577c8773-b40a-45a5-a56d-db4b5c37eb2b}, !- Handle
  20,                                     !- Calculation Frequency
  200;                                    !- Maximum Figures in Shadow Overlap Calculations

OS:HeatBalanceAlgorithm,
  {bf4c2bd5-2dd4-45a4-81cc-e5008b61aa34}, !- Handle
  ConductionTransferFunction,             !- Algorithm
  200;                                    !- Surface Temperature Upper Limit {C}

OS:RunPeriod,
  {e95d8dd4-ca30-4503-a732-f22fb8da1691}, !- Handle
  Run Period 1,                           !- Name
  1,                                      !- Begin Month
  1,                                      !- Begin Day of Month
  12,                                     !- End Month
  31,                                     !- End Day of Month
  ,                                       !- Use Weather File Holidays and Special Days
  ,                                       !- Use Weather File Daylight Saving Period
  ,                                       !- Apply Weekend Holiday Rule
  ,                                       !- Use Weather File Rain Indicators
  ,                                       !- Use Weather File Snow Indicators
  ;                                       !- Number of Times Runperiod to be Repeated

OS:LifeCycleCost:Parameters,
  {0a4dd069-744d-447d-83ee-85de06315e9a}, !- Handle
  ,                                       !- Analysis Type
  ,                                       !- Discounting Convention
  ,                                       !- Inflation Approach
  ,                                       !- Real Discount Rate
  ,                                       !- Nominal Discount Rate
  ,                                       !- Inflation
  ,                                       !- Base Date Month
  ,                                       !- Base Date Year
  ,                                       !- Service Date Month
  ,                                       !- Service Date Year
  ;                                       !- Length of Study Period in Years

OS:SurfaceConvectionAlgorithm:Outside,
  {124913da-888d-4340-8fe5-1f080ba29887}, !- Handle
  DOE-2;                                  !- Algorithm

OS:SurfaceConvectionAlgorithm:Inside,
  {af2ce0aa-b4a0-42e7-8ea9-d8a0755d2bb6}, !- Handle
  TARP;                                   !- Algorithm

OS:ZoneCapacitanceMultiplier:ResearchSpecial,
  {a8e95c02-b0fe-4cd7-9ff2-0b25ccf9d208}, !- Handle
  ,                                       !- Temperature Capacity Multiplier
  15,                                     !- Humidity Capacity Multiplier
  ;                                       !- Carbon Dioxide Capacity Multiplier

OS:ThermalZone,
  {241f7225-af8b-4d14-9b4b-aba960e00087}, !- Handle
  living zone,                            !- Name
  ,                                       !- Multiplier
  ,                                       !- Ceiling Height {m}
  ,                                       !- Volume {m3}
  ,                                       !- Floor Area {m2}
  ,                                       !- Zone Inside Convection Algorithm
  ,                                       !- Zone Outside Convection Algorithm
  ,                                       !- Zone Conditioning Equipment List Name
  {ee5d4e51-776a-49bf-846b-c81c6e76bf17}, !- Zone Air Inlet Port List
  {f064b6ae-cbcf-4265-b20d-8bcb4e40dd63}, !- Zone Air Exhaust Port List
  {db05132d-39b0-4bbc-b48d-564dc48845ff}, !- Zone Air Node Name
  {184719ea-08e6-441f-a3a5-6e1c795e47c8}, !- Zone Return Air Port List
  ,                                       !- Primary Daylighting Control Name
  ,                                       !- Fraction of Zone Controlled by Primary Daylighting Control
  ,                                       !- Secondary Daylighting Control Name
  ,                                       !- Fraction of Zone Controlled by Secondary Daylighting Control
  ,                                       !- Illuminance Map Name
  ,                                       !- Group Rendering Name
  ,                                       !- Thermostat Name
  No;                                     !- Use Ideal Air Loads

OS:Node,
  {39d3f67a-67ed-498f-9a6b-682378048fcf}, !- Handle
  Node 1,                                 !- Name
  {db05132d-39b0-4bbc-b48d-564dc48845ff}, !- Inlet Port
  ;                                       !- Outlet Port

OS:Connection,
  {db05132d-39b0-4bbc-b48d-564dc48845ff}, !- Handle
  {0eab45e9-a8db-4529-a327-553e5562ac51}, !- Name
  {241f7225-af8b-4d14-9b4b-aba960e00087}, !- Source Object
  11,                                     !- Outlet Port
  {39d3f67a-67ed-498f-9a6b-682378048fcf}, !- Target Object
  2;                                      !- Inlet Port

OS:PortList,
  {ee5d4e51-776a-49bf-846b-c81c6e76bf17}, !- Handle
  {5ce390b1-f882-41dd-8767-86411511f9f1}, !- Name
  {241f7225-af8b-4d14-9b4b-aba960e00087}; !- HVAC Component

OS:PortList,
  {f064b6ae-cbcf-4265-b20d-8bcb4e40dd63}, !- Handle
  {6add0057-c001-4250-a995-6338e81ce4aa}, !- Name
  {241f7225-af8b-4d14-9b4b-aba960e00087}; !- HVAC Component

OS:PortList,
  {184719ea-08e6-441f-a3a5-6e1c795e47c8}, !- Handle
  {0de3b41c-e3de-49c2-8950-398db6035903}, !- Name
  {241f7225-af8b-4d14-9b4b-aba960e00087}; !- HVAC Component

OS:Sizing:Zone,
  {47070c41-b446-4ff0-a895-415d46477248}, !- Handle
  {241f7225-af8b-4d14-9b4b-aba960e00087}, !- Zone or ZoneList Name
  SupplyAirTemperature,                   !- Zone Cooling Design Supply Air Temperature Input Method
  14,                                     !- Zone Cooling Design Supply Air Temperature {C}
  11.11,                                  !- Zone Cooling Design Supply Air Temperature Difference {deltaC}
  SupplyAirTemperature,                   !- Zone Heating Design Supply Air Temperature Input Method
  40,                                     !- Zone Heating Design Supply Air Temperature {C}
  11.11,                                  !- Zone Heating Design Supply Air Temperature Difference {deltaC}
  0.0085,                                 !- Zone Cooling Design Supply Air Humidity Ratio {kg-H2O/kg-air}
  0.008,                                  !- Zone Heating Design Supply Air Humidity Ratio {kg-H2O/kg-air}
  ,                                       !- Zone Heating Sizing Factor
  ,                                       !- Zone Cooling Sizing Factor
  DesignDay,                              !- Cooling Design Air Flow Method
  ,                                       !- Cooling Design Air Flow Rate {m3/s}
  ,                                       !- Cooling Minimum Air Flow per Zone Floor Area {m3/s-m2}
  ,                                       !- Cooling Minimum Air Flow {m3/s}
  ,                                       !- Cooling Minimum Air Flow Fraction
  DesignDay,                              !- Heating Design Air Flow Method
  ,                                       !- Heating Design Air Flow Rate {m3/s}
  ,                                       !- Heating Maximum Air Flow per Zone Floor Area {m3/s-m2}
  ,                                       !- Heating Maximum Air Flow {m3/s}
  ,                                       !- Heating Maximum Air Flow Fraction
  ,                                       !- Design Zone Air Distribution Effectiveness in Cooling Mode
  ,                                       !- Design Zone Air Distribution Effectiveness in Heating Mode
  No,                                     !- Account for Dedicated Outdoor Air System
  NeutralSupplyAir,                       !- Dedicated Outdoor Air System Control Strategy
  autosize,                               !- Dedicated Outdoor Air Low Setpoint Temperature for Design {C}
  autosize;                               !- Dedicated Outdoor Air High Setpoint Temperature for Design {C}

OS:ZoneHVAC:EquipmentList,
  {5ca54584-253c-4257-8645-9f2725f7ecd0}, !- Handle
  Zone HVAC Equipment List 1,             !- Name
  {241f7225-af8b-4d14-9b4b-aba960e00087}; !- Thermal Zone

OS:Space,
  {dae4cfbc-7c9d-4ef5-b5f3-0029fbb43ace}, !- Handle
  living space,                           !- Name
  {2364dd0c-a8bd-45ca-8d8c-923b7c9df812}, !- Space Type Name
  ,                                       !- Default Construction Set Name
  ,                                       !- Default Schedule Set Name
  ,                                       !- Direction of Relative North {deg}
  ,                                       !- X Origin {m}
  ,                                       !- Y Origin {m}
  ,                                       !- Z Origin {m}
  ,                                       !- Building Story Name
  {241f7225-af8b-4d14-9b4b-aba960e00087}, !- Thermal Zone Name
  ,                                       !- Part of Total Floor Area
  ,                                       !- Design Specification Outdoor Air Object Name
  {05c29795-12c2-47c6-90f1-a7c26b395fe3}; !- Building Unit Name

OS:Surface,
  {f7f1d1d1-51e0-49fe-a966-0bb3d659ba0b}, !- Handle
  Surface 1,                              !- Name
  Floor,                                  !- Surface Type
  ,                                       !- Construction Name
  {dae4cfbc-7c9d-4ef5-b5f3-0029fbb43ace}, !- Space Name
  Surface,                                !- Outside Boundary Condition
  {d664f223-8a6f-455b-a0e5-290e336ed3f0}, !- Outside Boundary Condition Object
  NoSun,                                  !- Sun Exposure
  NoWind,                                 !- Wind Exposure
  ,                                       !- View Factor to Ground
  ,                                       !- Number of Vertices
  0, -9.144, 0,                           !- X,Y,Z Vertex 1 {m}
  0, 0, 0,                                !- X,Y,Z Vertex 2 {m}
  4.572, 0, 0,                            !- X,Y,Z Vertex 3 {m}
  4.572, -9.144, 0;                       !- X,Y,Z Vertex 4 {m}

OS:Surface,
  {5a188bff-97ae-4ee4-b4cc-125a039c367d}, !- Handle
  Surface 2,                              !- Name
  Wall,                                   !- Surface Type
  ,                                       !- Construction Name
  {dae4cfbc-7c9d-4ef5-b5f3-0029fbb43ace}, !- Space Name
  Outdoors,                               !- Outside Boundary Condition
  ,                                       !- Outside Boundary Condition Object
  SunExposed,                             !- Sun Exposure
  WindExposed,                            !- Wind Exposure
  ,                                       !- View Factor to Ground
  ,                                       !- Number of Vertices
  0, 0, 2.4384,                           !- X,Y,Z Vertex 1 {m}
  0, 0, 0,                                !- X,Y,Z Vertex 2 {m}
  0, -9.144, 0,                           !- X,Y,Z Vertex 3 {m}
  0, -9.144, 2.4384;                      !- X,Y,Z Vertex 4 {m}

OS:Surface,
  {26358976-8b25-4064-91da-a6aae35bcff3}, !- Handle
  Surface 3,                              !- Name
  Wall,                                   !- Surface Type
  ,                                       !- Construction Name
  {dae4cfbc-7c9d-4ef5-b5f3-0029fbb43ace}, !- Space Name
  Outdoors,                               !- Outside Boundary Condition
  ,                                       !- Outside Boundary Condition Object
  SunExposed,                             !- Sun Exposure
  WindExposed,                            !- Wind Exposure
  ,                                       !- View Factor to Ground
  ,                                       !- Number of Vertices
  4.572, 0, 2.4384,                       !- X,Y,Z Vertex 1 {m}
  4.572, 0, 0,                            !- X,Y,Z Vertex 2 {m}
  0, 0, 0,                                !- X,Y,Z Vertex 3 {m}
  0, 0, 2.4384;                           !- X,Y,Z Vertex 4 {m}

OS:Surface,
  {2bf411b8-cf07-4011-9c22-d8d45584a793}, !- Handle
  Surface 4,                              !- Name
  Wall,                                   !- Surface Type
  ,                                       !- Construction Name
  {dae4cfbc-7c9d-4ef5-b5f3-0029fbb43ace}, !- Space Name
  Surface,                                !- Outside Boundary Condition
  {7ffb8871-9183-4667-9fbd-d689fe516769}, !- Outside Boundary Condition Object
  NoSun,                                  !- Sun Exposure
  NoWind,                                 !- Wind Exposure
  ,                                       !- View Factor to Ground
  ,                                       !- Number of Vertices
  4.572, -9.144, 2.4384,                  !- X,Y,Z Vertex 1 {m}
  4.572, -9.144, 0,                       !- X,Y,Z Vertex 2 {m}
  4.572, 0, 0,                            !- X,Y,Z Vertex 3 {m}
  4.572, 0, 2.4384;                       !- X,Y,Z Vertex 4 {m}

OS:Surface,
  {4fd1474c-2bbc-458e-8161-980d1d4865d4}, !- Handle
  Surface 5,                              !- Name
  Wall,                                   !- Surface Type
  ,                                       !- Construction Name
  {dae4cfbc-7c9d-4ef5-b5f3-0029fbb43ace}, !- Space Name
  Outdoors,                               !- Outside Boundary Condition
  ,                                       !- Outside Boundary Condition Object
  SunExposed,                             !- Sun Exposure
  WindExposed,                            !- Wind Exposure
  ,                                       !- View Factor to Ground
  ,                                       !- Number of Vertices
  0, -9.144, 2.4384,                      !- X,Y,Z Vertex 1 {m}
  0, -9.144, 0,                           !- X,Y,Z Vertex 2 {m}
  4.572, -9.144, 0,                       !- X,Y,Z Vertex 3 {m}
  4.572, -9.144, 2.4384;                  !- X,Y,Z Vertex 4 {m}

OS:Surface,
  {cb6495e8-3e08-4384-8238-5e250aecfdce}, !- Handle
  Surface 6,                              !- Name
  RoofCeiling,                            !- Surface Type
  ,                                       !- Construction Name
  {dae4cfbc-7c9d-4ef5-b5f3-0029fbb43ace}, !- Space Name
  Surface,                                !- Outside Boundary Condition
  {943c58f4-d349-41b1-84bc-8887266686b2}, !- Outside Boundary Condition Object
  NoSun,                                  !- Sun Exposure
  NoWind,                                 !- Wind Exposure
  ,                                       !- View Factor to Ground
  ,                                       !- Number of Vertices
  4.572, -9.144, 2.4384,                  !- X,Y,Z Vertex 1 {m}
  4.572, 0, 2.4384,                       !- X,Y,Z Vertex 2 {m}
  0, 0, 2.4384,                           !- X,Y,Z Vertex 3 {m}
  0, -9.144, 2.4384;                      !- X,Y,Z Vertex 4 {m}

OS:SpaceType,
  {2364dd0c-a8bd-45ca-8d8c-923b7c9df812}, !- Handle
  Space Type 1,                           !- Name
  ,                                       !- Default Construction Set Name
  ,                                       !- Default Schedule Set Name
  ,                                       !- Group Rendering Name
  ,                                       !- Design Specification Outdoor Air Object Name
  ,                                       !- Standards Template
  ,                                       !- Standards Building Type
  living;                                 !- Standards Space Type

OS:ThermalZone,
  {411776de-333a-4e15-ad92-f82c34f93e8e}, !- Handle
  living zone|unit 2,                     !- Name
  ,                                       !- Multiplier
  ,                                       !- Ceiling Height {m}
  ,                                       !- Volume {m3}
  ,                                       !- Floor Area {m2}
  ,                                       !- Zone Inside Convection Algorithm
  ,                                       !- Zone Outside Convection Algorithm
  ,                                       !- Zone Conditioning Equipment List Name
  {fd1bfca7-b6a7-41f3-97a1-d2047d3ecfeb}, !- Zone Air Inlet Port List
  {3f62f37c-8eb3-4f8d-861a-9e03953f7f11}, !- Zone Air Exhaust Port List
  {051efed6-92f4-47d1-8a4f-a503e5bb84c3}, !- Zone Air Node Name
  {965a0ddf-a8f2-41a5-951c-0eada5246f22}, !- Zone Return Air Port List
  ,                                       !- Primary Daylighting Control Name
  ,                                       !- Fraction of Zone Controlled by Primary Daylighting Control
  ,                                       !- Secondary Daylighting Control Name
  ,                                       !- Fraction of Zone Controlled by Secondary Daylighting Control
  ,                                       !- Illuminance Map Name
  ,                                       !- Group Rendering Name
  ,                                       !- Thermostat Name
  No;                                     !- Use Ideal Air Loads

OS:Node,
  {168dbab0-6faf-4731-9134-40418cd9916c}, !- Handle
  Node 2,                                 !- Name
  {051efed6-92f4-47d1-8a4f-a503e5bb84c3}, !- Inlet Port
  ;                                       !- Outlet Port

OS:Connection,
  {051efed6-92f4-47d1-8a4f-a503e5bb84c3}, !- Handle
  {4a5b4ec9-0d3c-4548-91e5-44c2e1e7b100}, !- Name
  {411776de-333a-4e15-ad92-f82c34f93e8e}, !- Source Object
  11,                                     !- Outlet Port
  {168dbab0-6faf-4731-9134-40418cd9916c}, !- Target Object
  2;                                      !- Inlet Port

OS:PortList,
  {fd1bfca7-b6a7-41f3-97a1-d2047d3ecfeb}, !- Handle
  {bc2f11d2-3793-4e0f-b580-33fa41557e98}, !- Name
  {411776de-333a-4e15-ad92-f82c34f93e8e}; !- HVAC Component

OS:PortList,
  {3f62f37c-8eb3-4f8d-861a-9e03953f7f11}, !- Handle
  {75256e08-d960-45e0-bc95-d757d5be000d}, !- Name
  {411776de-333a-4e15-ad92-f82c34f93e8e}; !- HVAC Component

OS:PortList,
  {965a0ddf-a8f2-41a5-951c-0eada5246f22}, !- Handle
  {bf3183f5-409f-4c9e-aabe-d8e20b0a1983}, !- Name
  {411776de-333a-4e15-ad92-f82c34f93e8e}; !- HVAC Component

OS:Sizing:Zone,
  {4fa72a8a-1df6-4dc6-82a3-82f3174befcf}, !- Handle
  {411776de-333a-4e15-ad92-f82c34f93e8e}, !- Zone or ZoneList Name
  SupplyAirTemperature,                   !- Zone Cooling Design Supply Air Temperature Input Method
  14,                                     !- Zone Cooling Design Supply Air Temperature {C}
  11.11,                                  !- Zone Cooling Design Supply Air Temperature Difference {deltaC}
  SupplyAirTemperature,                   !- Zone Heating Design Supply Air Temperature Input Method
  40,                                     !- Zone Heating Design Supply Air Temperature {C}
  11.11,                                  !- Zone Heating Design Supply Air Temperature Difference {deltaC}
  0.0085,                                 !- Zone Cooling Design Supply Air Humidity Ratio {kg-H2O/kg-air}
  0.008,                                  !- Zone Heating Design Supply Air Humidity Ratio {kg-H2O/kg-air}
  ,                                       !- Zone Heating Sizing Factor
  ,                                       !- Zone Cooling Sizing Factor
  DesignDay,                              !- Cooling Design Air Flow Method
  ,                                       !- Cooling Design Air Flow Rate {m3/s}
  ,                                       !- Cooling Minimum Air Flow per Zone Floor Area {m3/s-m2}
  ,                                       !- Cooling Minimum Air Flow {m3/s}
  ,                                       !- Cooling Minimum Air Flow Fraction
  DesignDay,                              !- Heating Design Air Flow Method
  ,                                       !- Heating Design Air Flow Rate {m3/s}
  ,                                       !- Heating Maximum Air Flow per Zone Floor Area {m3/s-m2}
  ,                                       !- Heating Maximum Air Flow {m3/s}
  ,                                       !- Heating Maximum Air Flow Fraction
  ,                                       !- Design Zone Air Distribution Effectiveness in Cooling Mode
  ,                                       !- Design Zone Air Distribution Effectiveness in Heating Mode
  No,                                     !- Account for Dedicated Outdoor Air System
  NeutralSupplyAir,                       !- Dedicated Outdoor Air System Control Strategy
  autosize,                               !- Dedicated Outdoor Air Low Setpoint Temperature for Design {C}
  autosize;                               !- Dedicated Outdoor Air High Setpoint Temperature for Design {C}

OS:ZoneHVAC:EquipmentList,
  {6343c5b2-d4ba-4fcb-917b-dfb3959e5723}, !- Handle
  Zone HVAC Equipment List 2,             !- Name
  {411776de-333a-4e15-ad92-f82c34f93e8e}; !- Thermal Zone

OS:Space,
  {13f695dc-cce4-4f60-98b8-767119e2713f}, !- Handle
  living space|unit 2|story 1,            !- Name
  {2364dd0c-a8bd-45ca-8d8c-923b7c9df812}, !- Space Type Name
  ,                                       !- Default Construction Set Name
  ,                                       !- Default Schedule Set Name
  -0,                                     !- Direction of Relative North {deg}
  0,                                      !- X Origin {m}
  0,                                      !- Y Origin {m}
  0,                                      !- Z Origin {m}
  ,                                       !- Building Story Name
  {411776de-333a-4e15-ad92-f82c34f93e8e}, !- Thermal Zone Name
  ,                                       !- Part of Total Floor Area
  ,                                       !- Design Specification Outdoor Air Object Name
  {372354e4-400e-4033-ae9a-25c51ed46bee}; !- Building Unit Name

OS:Surface,
  {0685aa8a-3b10-47b2-8564-df567e07c1bb}, !- Handle
  Surface 12,                             !- Name
  Wall,                                   !- Surface Type
  ,                                       !- Construction Name
  {13f695dc-cce4-4f60-98b8-767119e2713f}, !- Space Name
  Surface,                                !- Outside Boundary Condition
  {59952182-ec71-4b12-b2b3-435c92d06780}, !- Outside Boundary Condition Object
  NoSun,                                  !- Sun Exposure
  NoWind,                                 !- Wind Exposure
  ,                                       !- View Factor to Ground
  ,                                       !- Number of Vertices
  9.144, -9.144, 2.4384,                  !- X,Y,Z Vertex 1 {m}
  9.144, -9.144, 0,                       !- X,Y,Z Vertex 2 {m}
  9.144, 0, 0,                            !- X,Y,Z Vertex 3 {m}
  9.144, 0, 2.4384;                       !- X,Y,Z Vertex 4 {m}

OS:Surface,
  {80998f1d-6cce-44b8-996c-0b14d4753d62}, !- Handle
  Surface 13,                             !- Name
  Floor,                                  !- Surface Type
  ,                                       !- Construction Name
  {13f695dc-cce4-4f60-98b8-767119e2713f}, !- Space Name
  Surface,                                !- Outside Boundary Condition
  {4a9b5c63-4671-4ede-b208-8b996822d5ed}, !- Outside Boundary Condition Object
  NoSun,                                  !- Sun Exposure
  NoWind,                                 !- Wind Exposure
  ,                                       !- View Factor to Ground
  ,                                       !- Number of Vertices
  4.572, -9.144, 0,                       !- X,Y,Z Vertex 1 {m}
  4.572, 0, 0,                            !- X,Y,Z Vertex 2 {m}
  9.144, 0, 0,                            !- X,Y,Z Vertex 3 {m}
  9.144, -9.144, 0;                       !- X,Y,Z Vertex 4 {m}

OS:Surface,
  {6650edc1-8379-478c-9547-0b98ac28b705}, !- Handle
  Surface 14,                             !- Name
  Wall,                                   !- Surface Type
  ,                                       !- Construction Name
  {13f695dc-cce4-4f60-98b8-767119e2713f}, !- Space Name
  Outdoors,                               !- Outside Boundary Condition
  ,                                       !- Outside Boundary Condition Object
  SunExposed,                             !- Sun Exposure
  WindExposed,                            !- Wind Exposure
  ,                                       !- View Factor to Ground
  ,                                       !- Number of Vertices
  4.572, -9.144, 2.4384,                  !- X,Y,Z Vertex 1 {m}
  4.572, -9.144, 0,                       !- X,Y,Z Vertex 2 {m}
  9.144, -9.144, 0,                       !- X,Y,Z Vertex 3 {m}
  9.144, -9.144, 2.4384;                  !- X,Y,Z Vertex 4 {m}

OS:Surface,
  {36ec72ca-260c-4491-9e6d-d63d59779500}, !- Handle
  Surface 15,                             !- Name
  RoofCeiling,                            !- Surface Type
  ,                                       !- Construction Name
  {13f695dc-cce4-4f60-98b8-767119e2713f}, !- Space Name
  Surface,                                !- Outside Boundary Condition
  {a662dd6d-b4a7-488b-938b-5208e24c9e0e}, !- Outside Boundary Condition Object
  NoSun,                                  !- Sun Exposure
  NoWind,                                 !- Wind Exposure
  ,                                       !- View Factor to Ground
  ,                                       !- Number of Vertices
  9.144, -9.144, 2.4384,                  !- X,Y,Z Vertex 1 {m}
  9.144, 0, 2.4384,                       !- X,Y,Z Vertex 2 {m}
  4.572, 0, 2.4384,                       !- X,Y,Z Vertex 3 {m}
  4.572, -9.144, 2.4384;                  !- X,Y,Z Vertex 4 {m}

OS:Surface,
  {e1e62321-dd78-4590-a307-dbbf25160e4c}, !- Handle
  Surface 16,                             !- Name
  Wall,                                   !- Surface Type
  ,                                       !- Construction Name
  {13f695dc-cce4-4f60-98b8-767119e2713f}, !- Space Name
  Outdoors,                               !- Outside Boundary Condition
  ,                                       !- Outside Boundary Condition Object
  SunExposed,                             !- Sun Exposure
  WindExposed,                            !- Wind Exposure
  ,                                       !- View Factor to Ground
  ,                                       !- Number of Vertices
  9.144, 0, 2.4384,                       !- X,Y,Z Vertex 1 {m}
  9.144, 0, 0,                            !- X,Y,Z Vertex 2 {m}
  4.572, 0, 0,                            !- X,Y,Z Vertex 3 {m}
  4.572, 0, 2.4384;                       !- X,Y,Z Vertex 4 {m}

OS:Surface,
  {7ffb8871-9183-4667-9fbd-d689fe516769}, !- Handle
  Surface 17,                             !- Name
  Wall,                                   !- Surface Type
  ,                                       !- Construction Name
  {13f695dc-cce4-4f60-98b8-767119e2713f}, !- Space Name
  Surface,                                !- Outside Boundary Condition
  {2bf411b8-cf07-4011-9c22-d8d45584a793}, !- Outside Boundary Condition Object
  NoSun,                                  !- Sun Exposure
  NoWind,                                 !- Wind Exposure
  ,                                       !- View Factor to Ground
  ,                                       !- Number of Vertices
  4.572, 0, 2.4384,                       !- X,Y,Z Vertex 1 {m}
  4.572, 0, 0,                            !- X,Y,Z Vertex 2 {m}
  4.572, -9.144, 0,                       !- X,Y,Z Vertex 3 {m}
  4.572, -9.144, 2.4384;                  !- X,Y,Z Vertex 4 {m}

OS:ThermalZone,
  {ad392e39-5ee5-4d01-aec2-964c096e4e7d}, !- Handle
  living zone|unit 3,                     !- Name
  ,                                       !- Multiplier
  ,                                       !- Ceiling Height {m}
  ,                                       !- Volume {m3}
  ,                                       !- Floor Area {m2}
  ,                                       !- Zone Inside Convection Algorithm
  ,                                       !- Zone Outside Convection Algorithm