!- NOTE: Auto-generated from /test/osw_files/SFA_4units_1story_FB_UA_Denver.osw

OS:Version,
  {6d1d7c16-0571-42d3-8726-705d792ba107}, !- Handle
  2.5.1;                                  !- Version Identifier

OS:Building,
  {4b3e63e7-31b1-48d4-855f-356ceaad68d7}, !- Handle
  Building 1,                             !- Name
  ,                                       !- Building Sector Type
  0,                                      !- North Axis {deg}
  ,                                       !- Nominal Floor to Floor Height {m}
  ,                                       !- Space Type Name
  ,                                       !- Default Construction Set Name
  ,                                       !- Default Schedule Set Name
  2,                                      !- Standards Number of Stories
  1,                                      !- Standards Number of Above Ground Stories
  singlefamilyttached,                    !- Standards Building Type
  4;                                      !- Standards Number of Living Units

OS:Facility,
  {fcaa34ba-31cd-4a69-a259-f01306281da7}; !- Handle

OS:Site,
  {d69270d6-1bcb-4c8b-a45e-9aeb74c360f2}, !- Handle
  Denver Intl Ap_CO_USA,                  !- Name
  39.83,                                  !- Latitude {deg}
  -104.65,                                !- Longitude {deg}
  -7,                                     !- Time Zone {hr}
  1650,                                   !- Elevation {m}
  ;                                       !- Terrain

OS:SimulationControl,
  {8ddc8554-2cb2-423d-bfc9-0e23b601c6b6}, !- Handle
  ,                                       !- Do Zone Sizing Calculation
  ,                                       !- Do System Sizing Calculation
  ,                                       !- Do Plant Sizing Calculation
  No;                                     !- Run Simulation for Sizing Periods

OS:Sizing:Parameters,
  {9ba70263-2ea4-4d6c-809c-ee75b51fa21e}, !- Handle
  1.25,                                   !- Heating Sizing Factor
  1.15;                                   !- Cooling Sizing Factor

OS:Timestep,
  {d8ce17de-62fb-4710-a7bb-f951a86ff648}, !- Handle
  6;                                      !- Number of Timesteps per Hour

OS:ShadowCalculation,
  {718ec435-22c2-463d-9783-b8b76ef73453}, !- Handle
  20,                                     !- Calculation Frequency
  200;                                    !- Maximum Figures in Shadow Overlap Calculations

OS:HeatBalanceAlgorithm,
  {93c0235e-2119-43fe-8b89-56eb83eacc2f}, !- Handle
  ConductionTransferFunction,             !- Algorithm
  200;                                    !- Surface Temperature Upper Limit {C}

OS:RunPeriod,
  {e1fea94b-b04b-497d-86f5-57cd7c89639e}, !- Handle
  Run Period 1,                           !- Name
  1,                                      !- Begin Month
  1,                                      !- Begin Day of Month
  12,                                     !- End Month
  31,                                     !- End Day of Month
  ,                                       !- Use Weather File Holidays and Special Days
  ,                                       !- Use Weather File Daylight Saving Period
  ,                                       !- Apply Weekend Holiday Rule
  ,                                       !- Use Weather File Rain Indicators
  ,                                       !- Use Weather File Snow Indicators
  ;                                       !- Number of Times Runperiod to be Repeated

OS:LifeCycleCost:Parameters,
  {c7579494-df05-477b-a44c-c034e2ab9c58}, !- Handle
  ,                                       !- Analysis Type
  ,                                       !- Discounting Convention
  ,                                       !- Inflation Approach
  ,                                       !- Real Discount Rate
  ,                                       !- Nominal Discount Rate
  ,                                       !- Inflation
  ,                                       !- Base Date Month
  ,                                       !- Base Date Year
  ,                                       !- Service Date Month
  ,                                       !- Service Date Year
  ;                                       !- Length of Study Period in Years

OS:ThermalZone,
  {5b027c47-ca26-45f8-9e10-5d41c6a1e3c5}, !- Handle
  living zone,                            !- Name
  ,                                       !- Multiplier
  ,                                       !- Ceiling Height {m}
  ,                                       !- Volume {m3}
  ,                                       !- Floor Area {m2}
  ,                                       !- Zone Inside Convection Algorithm
  ,                                       !- Zone Outside Convection Algorithm
  ,                                       !- Zone Conditioning Equipment List Name
  {4540aeb0-fe8f-4b88-a506-907f08daba18}, !- Zone Air Inlet Port List
  {566aad23-6ba5-460a-ae6d-fe13a68c41f3}, !- Zone Air Exhaust Port List
  {c747c954-8680-4393-8133-7361c3b87166}, !- Zone Air Node Name
  ,                                       !- Zone Return Air Node Name
  ,                                       !- Primary Daylighting Control Name
  ,                                       !- Fraction of Zone Controlled by Primary Daylighting Control
  ,                                       !- Secondary Daylighting Control Name
  ,                                       !- Fraction of Zone Controlled by Secondary Daylighting Control
  ,                                       !- Illuminance Map Name
  ,                                       !- Group Rendering Name
  ,                                       !- Thermostat Name
  No;                                     !- Use Ideal Air Loads

OS:Node,
  {758cfd10-8c43-4171-b9dd-497617734639}, !- Handle
  Node 1,                                 !- Name
  {c747c954-8680-4393-8133-7361c3b87166}, !- Inlet Port
  ;                                       !- Outlet Port

OS:Connection,
  {c747c954-8680-4393-8133-7361c3b87166}, !- Handle
  {724c5dce-1c31-4633-a821-c88f12068f49}, !- Name
  {5b027c47-ca26-45f8-9e10-5d41c6a1e3c5}, !- Source Object
  11,                                     !- Outlet Port
  {758cfd10-8c43-4171-b9dd-497617734639}, !- Target Object
  2;                                      !- Inlet Port

OS:PortList,
  {4540aeb0-fe8f-4b88-a506-907f08daba18}, !- Handle
  {9e0efb22-da22-46b6-b613-18b089a3e1c8}, !- Name
  {5b027c47-ca26-45f8-9e10-5d41c6a1e3c5}; !- HVAC Component

OS:PortList,
  {566aad23-6ba5-460a-ae6d-fe13a68c41f3}, !- Handle
  {16732c35-77a5-4385-baf1-041480044e6b}, !- Name
  {5b027c47-ca26-45f8-9e10-5d41c6a1e3c5}; !- HVAC Component

OS:Sizing:Zone,
  {e059d651-5407-42b8-8046-c3162ebd13f2}, !- Handle
  {5b027c47-ca26-45f8-9e10-5d41c6a1e3c5}, !- Zone or ZoneList Name
  SupplyAirTemperature,                   !- Zone Cooling Design Supply Air Temperature Input Method
  14,                                     !- Zone Cooling Design Supply Air Temperature {C}
  11.11,                                  !- Zone Cooling Design Supply Air Temperature Difference {deltaC}
  SupplyAirTemperature,                   !- Zone Heating Design Supply Air Temperature Input Method
  40,                                     !- Zone Heating Design Supply Air Temperature {C}
  11.11,                                  !- Zone Heating Design Supply Air Temperature Difference {deltaC}
  0.0085,                                 !- Zone Cooling Design Supply Air Humidity Ratio {kg-H2O/kg-air}
  0.008,                                  !- Zone Heating Design Supply Air Humidity Ratio {kg-H2O/kg-air}
  ,                                       !- Zone Heating Sizing Factor
  ,                                       !- Zone Cooling Sizing Factor
  DesignDay,                              !- Cooling Design Air Flow Method
  ,                                       !- Cooling Design Air Flow Rate {m3/s}
  ,                                       !- Cooling Minimum Air Flow per Zone Floor Area {m3/s-m2}
  ,                                       !- Cooling Minimum Air Flow {m3/s}
  ,                                       !- Cooling Minimum Air Flow Fraction
  DesignDay,                              !- Heating Design Air Flow Method
  ,                                       !- Heating Design Air Flow Rate {m3/s}
  ,                                       !- Heating Maximum Air Flow per Zone Floor Area {m3/s-m2}
  ,                                       !- Heating Maximum Air Flow {m3/s}
  ,                                       !- Heating Maximum Air Flow Fraction
  ,                                       !- Design Zone Air Distribution Effectiveness in Cooling Mode
  ,                                       !- Design Zone Air Distribution Effectiveness in Heating Mode
  No,                                     !- Account for Dedicated Outdoor Air System
  NeutralSupplyAir,                       !- Dedicated Outdoor Air System Control Strategy
  autosize,                               !- Dedicated Outdoor Air Low Setpoint Temperature for Design {C}
  autosize;                               !- Dedicated Outdoor Air High Setpoint Temperature for Design {C}

OS:ZoneHVAC:EquipmentList,
  {dcf2039a-d3b8-4f40-a9c8-a978c43716f6}, !- Handle
  Zone HVAC Equipment List 1,             !- Name
  {5b027c47-ca26-45f8-9e10-5d41c6a1e3c5}; !- Thermal Zone

OS:Space,
  {056550ac-319e-4e0d-8bf0-4c48ef5b55c0}, !- Handle
  living space,                           !- Name
  {1b0a426e-7b37-4755-80a9-022886f10e86}, !- Space Type Name
  ,                                       !- Default Construction Set Name
  ,                                       !- Default Schedule Set Name
  ,                                       !- Direction of Relative North {deg}
  ,                                       !- X Origin {m}
  ,                                       !- Y Origin {m}
  ,                                       !- Z Origin {m}
  ,                                       !- Building Story Name
  {5b027c47-ca26-45f8-9e10-5d41c6a1e3c5}, !- Thermal Zone Name
  ,                                       !- Part of Total Floor Area
  ,                                       !- Design Specification Outdoor Air Object Name
  {997ad9f6-d44f-4d37-a919-e168be933291}; !- Building Unit Name

OS:Surface,
  {27835f7f-1a71-4f23-81ea-e54b61cc78ab}, !- Handle
  Surface 1,                              !- Name
  Floor,                                  !- Surface Type
  ,                                       !- Construction Name
  {056550ac-319e-4e0d-8bf0-4c48ef5b55c0}, !- Space Name
  Surface,                                !- Outside Boundary Condition
  {743465f5-9a14-4e9f-9d15-40b7ba71f26c}, !- Outside Boundary Condition Object
  NoSun,                                  !- Sun Exposure
  NoWind,                                 !- Wind Exposure
  ,                                       !- View Factor to Ground
  ,                                       !- Number of Vertices
  0, -9.144, 0,                           !- X,Y,Z Vertex 1 {m}
  0, 0, 0,                                !- X,Y,Z Vertex 2 {m}
  4.572, 0, 0,                            !- X,Y,Z Vertex 3 {m}
  4.572, -9.144, 0;                       !- X,Y,Z Vertex 4 {m}

OS:Surface,
  {9982c0b7-cb16-4397-b83a-21f2ced3529c}, !- Handle
  Surface 2,                              !- Name
  Wall,                                   !- Surface Type
  ,                                       !- Construction Name
  {056550ac-319e-4e0d-8bf0-4c48ef5b55c0}, !- Space Name
  Outdoors,                               !- Outside Boundary Condition
  ,                                       !- Outside Boundary Condition Object
  SunExposed,                             !- Sun Exposure
  WindExposed,                            !- Wind Exposure
  ,                                       !- View Factor to Ground
  ,                                       !- Number of Vertices
  0, 0, 2.4384,                           !- X,Y,Z Vertex 1 {m}
  0, 0, 0,                                !- X,Y,Z Vertex 2 {m}
  0, -9.144, 0,                           !- X,Y,Z Vertex 3 {m}
  0, -9.144, 2.4384;                      !- X,Y,Z Vertex 4 {m}

OS:Surface,
  {68a0d521-e74f-4801-a2c5-9527d73c1c7a}, !- Handle
  Surface 3,                              !- Name
  Wall,                                   !- Surface Type
  ,                                       !- Construction Name
  {056550ac-319e-4e0d-8bf0-4c48ef5b55c0}, !- Space Name
  Outdoors,                               !- Outside Boundary Condition
  ,                                       !- Outside Boundary Condition Object
  SunExposed,                             !- Sun Exposure
  WindExposed,                            !- Wind Exposure
  ,                                       !- View Factor to Ground
  ,                                       !- Number of Vertices
  4.572, 0, 2.4384,                       !- X,Y,Z Vertex 1 {m}
  4.572, 0, 0,                            !- X,Y,Z Vertex 2 {m}
  0, 0, 0,                                !- X,Y,Z Vertex 3 {m}
  0, 0, 2.4384;                           !- X,Y,Z Vertex 4 {m}

OS:Surface,
  {933d9e45-26fe-4fa1-b479-e4d4a431e736}, !- Handle
  Surface 4,                              !- Name
  Wall,                                   !- Surface Type
  ,                                       !- Construction Name
  {056550ac-319e-4e0d-8bf0-4c48ef5b55c0}, !- Space Name
  Surface,                                !- Outside Boundary Condition
  {c001207a-c03d-4767-a2da-e241c1732118}, !- Outside Boundary Condition Object
  NoSun,                                  !- Sun Exposure
  NoWind,                                 !- Wind Exposure
  ,                                       !- View Factor to Ground
  ,                                       !- Number of Vertices
  4.572, -9.144, 2.4384,                  !- X,Y,Z Vertex 1 {m}
  4.572, -9.144, 0,                       !- X,Y,Z Vertex 2 {m}
  4.572, 0, 0,                            !- X,Y,Z Vertex 3 {m}
  4.572, 0, 2.4384;                       !- X,Y,Z Vertex 4 {m}

OS:Surface,
  {be320287-82b9-44a2-b3cc-4bae05ec7ed5}, !- Handle
  Surface 5,                              !- Name
  Wall,                                   !- Surface Type
  ,                                       !- Construction Name
  {056550ac-319e-4e0d-8bf0-4c48ef5b55c0}, !- Space Name
  Outdoors,                               !- Outside Boundary Condition
  ,                                       !- Outside Boundary Condition Object
  SunExposed,                             !- Sun Exposure
  WindExposed,                            !- Wind Exposure
  ,                                       !- View Factor to Ground
  ,                                       !- Number of Vertices
  0, -9.144, 2.4384,                      !- X,Y,Z Vertex 1 {m}
  0, -9.144, 0,                           !- X,Y,Z Vertex 2 {m}
  4.572, -9.144, 0,                       !- X,Y,Z Vertex 3 {m}
  4.572, -9.144, 2.4384;                  !- X,Y,Z Vertex 4 {m}

OS:Surface,
  {5e6d8762-2cbb-4c3a-a5be-8f166cab10fd}, !- Handle
  Surface 6,                              !- Name
  RoofCeiling,                            !- Surface Type
  ,                                       !- Construction Name
  {056550ac-319e-4e0d-8bf0-4c48ef5b55c0}, !- Space Name
  Surface,                                !- Outside Boundary Condition
  {51502918-d279-46d9-8718-613071a739e8}, !- Outside Boundary Condition Object
  NoSun,                                  !- Sun Exposure
  NoWind,                                 !- Wind Exposure
  ,                                       !- View Factor to Ground
  ,                                       !- Number of Vertices
  4.572, -9.144, 2.4384,                  !- X,Y,Z Vertex 1 {m}
  4.572, 0, 2.4384,                       !- X,Y,Z Vertex 2 {m}
  0, 0, 2.4384,                           !- X,Y,Z Vertex 3 {m}
  0, -9.144, 2.4384;                      !- X,Y,Z Vertex 4 {m}

OS:SpaceType,
  {1b0a426e-7b37-4755-80a9-022886f10e86}, !- Handle
  Space Type 1,                           !- Name
  ,                                       !- Default Construction Set Name
  ,                                       !- Default Schedule Set Name
  ,                                       !- Group Rendering Name
  ,                                       !- Design Specification Outdoor Air Object Name
  ,                                       !- Standards Building Type
  living;                                 !- Standards Space Type

OS:ThermalZone,
  {09484a02-cac0-4fbd-9166-6b95fb245e77}, !- Handle
  living zone|unit 2,                     !- Name
  ,                                       !- Multiplier
  ,                                       !- Ceiling Height {m}
  ,                                       !- Volume {m3}
  ,                                       !- Floor Area {m2}
  ,                                       !- Zone Inside Convection Algorithm
  ,                                       !- Zone Outside Convection Algorithm
  ,                                       !- Zone Conditioning Equipment List Name
  {dea9b3ce-7625-465d-9e66-62cac1b2aff0}, !- Zone Air Inlet Port List
  {a494683e-f164-459a-aa51-d058944f13a7}, !- Zone Air Exhaust Port List
  {e3858e13-a4b5-40aa-9e14-7a1e23ad92d5}, !- Zone Air Node Name
  ,                                       !- Zone Return Air Node Name
  ,                                       !- Primary Daylighting Control Name
  ,                                       !- Fraction of Zone Controlled by Primary Daylighting Control
  ,                                       !- Secondary Daylighting Control Name
  ,                                       !- Fraction of Zone Controlled by Secondary Daylighting Control
  ,                                       !- Illuminance Map Name
  ,                                       !- Group Rendering Name
  ,                                       !- Thermostat Name
  No;                                     !- Use Ideal Air Loads

OS:Node,
  {24b0e618-d975-4187-b8e9-79e8a0964ddb}, !- Handle
  Node 2,                                 !- Name
  {e3858e13-a4b5-40aa-9e14-7a1e23ad92d5}, !- Inlet Port
  ;                                       !- Outlet Port

OS:Connection,
  {e3858e13-a4b5-40aa-9e14-7a1e23ad92d5}, !- Handle
  {ea950e32-6b4e-4e74-a211-e6d6db385543}, !- Name
  {09484a02-cac0-4fbd-9166-6b95fb245e77}, !- Source Object
  11,                                     !- Outlet Port
  {24b0e618-d975-4187-b8e9-79e8a0964ddb}, !- Target Object
  2;                                      !- Inlet Port

OS:PortList,
  {dea9b3ce-7625-465d-9e66-62cac1b2aff0}, !- Handle
  {a5a09250-ba16-45e4-a90e-324a2858b3f8}, !- Name
  {09484a02-cac0-4fbd-9166-6b95fb245e77}; !- HVAC Component

OS:PortList,
  {a494683e-f164-459a-aa51-d058944f13a7}, !- Handle
  {9f46eafd-5928-45d6-9166-35f644a9bcbe}, !- Name
  {09484a02-cac0-4fbd-9166-6b95fb245e77}; !- HVAC Component

OS:Sizing:Zone,
  {bb370e75-6384-49d1-a210-b66c386c4d7d}, !- Handle
  {09484a02-cac0-4fbd-9166-6b95fb245e77}, !- Zone or ZoneList Name
  SupplyAirTemperature,                   !- Zone Cooling Design Supply Air Temperature Input Method
  14,                                     !- Zone Cooling Design Supply Air Temperature {C}
  11.11,                                  !- Zone Cooling Design Supply Air Temperature Difference {deltaC}
  SupplyAirTemperature,                   !- Zone Heating Design Supply Air Temperature Input Method
  40,                                     !- Zone Heating Design Supply Air Temperature {C}
  11.11,                                  !- Zone Heating Design Supply Air Temperature Difference {deltaC}
  0.0085,                                 !- Zone Cooling Design Supply Air Humidity Ratio {kg-H2O/kg-air}
  0.008,                                  !- Zone Heating Design Supply Air Humidity Ratio {kg-H2O/kg-air}
  ,                                       !- Zone Heating Sizing Factor
  ,                                       !- Zone Cooling Sizing Factor
  DesignDay,                              !- Cooling Design Air Flow Method
  ,                                       !- Cooling Design Air Flow Rate {m3/s}
  ,                                       !- Cooling Minimum Air Flow per Zone Floor Area {m3/s-m2}
  ,                                       !- Cooling Minimum Air Flow {m3/s}
  ,                                       !- Cooling Minimum Air Flow Fraction
  DesignDay,                              !- Heating Design Air Flow Method
  ,                                       !- Heating Design Air Flow Rate {m3/s}
  ,                                       !- Heating Maximum Air Flow per Zone Floor Area {m3/s-m2}
  ,                                       !- Heating Maximum Air Flow {m3/s}
  ,                                       !- Heating Maximum Air Flow Fraction
  ,                                       !- Design Zone Air Distribution Effectiveness in Cooling Mode
  ,                                       !- Design Zone Air Distribution Effectiveness in Heating Mode
  No,                                     !- Account for Dedicated Outdoor Air System
  NeutralSupplyAir,                       !- Dedicated Outdoor Air System Control Strategy
  autosize,                               !- Dedicated Outdoor Air Low Setpoint Temperature for Design {C}
  autosize;                               !- Dedicated Outdoor Air High Setpoint Temperature for Design {C}

OS:ZoneHVAC:EquipmentList,
  {32f60422-bbfa-4518-8eec-7390689308cc}, !- Handle
  Zone HVAC Equipment List 2,             !- Name
  {09484a02-cac0-4fbd-9166-6b95fb245e77}; !- Thermal Zone

OS:Space,
  {d04b6fcc-7d44-41b5-8b11-7c8a0b86cad0}, !- Handle
  living space|unit 2|story 1,            !- Name
  {1b0a426e-7b37-4755-80a9-022886f10e86}, !- Space Type Name
  ,                                       !- Default Construction Set Name
  ,                                       !- Default Schedule Set Name
  -0,                                     !- Direction of Relative North {deg}
  0,                                      !- X Origin {m}
  0,                                      !- Y Origin {m}
  0,                                      !- Z Origin {m}
  ,                                       !- Building Story Name
  {09484a02-cac0-4fbd-9166-6b95fb245e77}, !- Thermal Zone Name
  ,                                       !- Part of Total Floor Area
  ,                                       !- Design Specification Outdoor Air Object Name
  {296cbd28-7c71-463b-bc42-d88c65bb36a3}; !- Building Unit Name

OS:Surface,
  {0c873a58-13f9-4fde-b27d-1262b7ac032c}, !- Handle
  Surface 12,                             !- Name
  RoofCeiling,                            !- Surface Type
  ,                                       !- Construction Name
  {d04b6fcc-7d44-41b5-8b11-7c8a0b86cad0}, !- Space Name
  Surface,                                !- Outside Boundary Condition
  {25c510bb-14c9-47e2-b774-99f5ad236a9d}, !- Outside Boundary Condition Object
  NoSun,                                  !- Sun Exposure
  NoWind,                                 !- Wind Exposure
  ,                                       !- View Factor to Ground
  ,                                       !- Number of Vertices
  9.144, -9.144, 2.4384,                  !- X,Y,Z Vertex 1 {m}
  9.144, 0, 2.4384,                       !- X,Y,Z Vertex 2 {m}
  4.572, 0, 2.4384,                       !- X,Y,Z Vertex 3 {m}
  4.572, -9.144, 2.4384;                  !- X,Y,Z Vertex 4 {m}

OS:Surface,
  {8f6a3933-b6b2-4e57-b46a-aaa968a9498c}, !- Handle
  Surface 13,                             !- Name
  Wall,                                   !- Surface Type
  ,                                       !- Construction Name
  {d04b6fcc-7d44-41b5-8b11-7c8a0b86cad0}, !- Space Name
  Surface,                                !- Outside Boundary Condition
  {faf5c730-cc7f-493c-aa38-1e7caec59556}, !- Outside Boundary Condition Object
  NoSun,                                  !- Sun Exposure
  NoWind,                                 !- Wind Exposure
  ,                                       !- View Factor to Ground
  ,                                       !- Number of Vertices
  9.144, -9.144, 2.4384,                  !- X,Y,Z Vertex 1 {m}
  9.144, -9.144, 0,                       !- X,Y,Z Vertex 2 {m}
  9.144, 0, 0,                            !- X,Y,Z Vertex 3 {m}
  9.144, 0, 2.4384;                       !- X,Y,Z Vertex 4 {m}

OS:Surface,
  {fb1ff285-07a2-447d-94d8-9cda52ce9a7b}, !- Handle
  Surface 14,                             !- Name
  Wall,                                   !- Surface Type
  ,                                       !- Construction Name
  {d04b6fcc-7d44-41b5-8b11-7c8a0b86cad0}, !- Space Name
  Outdoors,                               !- Outside Boundary Condition
  ,                                       !- Outside Boundary Condition Object
  SunExposed,                             !- Sun Exposure
  WindExposed,                            !- Wind Exposure
  ,                                       !- View Factor to Ground
  ,                                       !- Number of Vertices
  4.572, -9.144, 2.4384,                  !- X,Y,Z Vertex 1 {m}
  4.572, -9.144, 0,                       !- X,Y,Z Vertex 2 {m}
  9.144, -9.144, 0,                       !- X,Y,Z Vertex 3 {m}
  9.144, -9.144, 2.4384;                  !- X,Y,Z Vertex 4 {m}

OS:Surface,
  {0eeb28a8-c358-4472-a6fa-41784b63d1f4}, !- Handle
  Surface 15,                             !- Name
  Wall,                                   !- Surface Type
  ,                                       !- Construction Name
  {d04b6fcc-7d44-41b5-8b11-7c8a0b86cad0}, !- Space Name
  Outdoors,                               !- Outside Boundary Condition
  ,                                       !- Outside Boundary Condition Object
  SunExposed,                             !- Sun Exposure
  WindExposed,                            !- Wind Exposure
  ,                                       !- View Factor to Ground
  ,                                       !- Number of Vertices
  9.144, 0, 2.4384,                       !- X,Y,Z Vertex 1 {m}
  9.144, 0, 0,                            !- X,Y,Z Vertex 2 {m}
  4.572, 0, 0,                            !- X,Y,Z Vertex 3 {m}
  4.572, 0, 2.4384;                       !- X,Y,Z Vertex 4 {m}

OS:Surface,
  {011e4b5f-e5a8-43ea-a4e5-1fd4b77fa984}, !- Handle
  Surface 16,                             !- Name
  Floor,                                  !- Surface Type
  ,                                       !- Construction Name
  {d04b6fcc-7d44-41b5-8b11-7c8a0b86cad0}, !- Space Name
  Surface,                                !- Outside Boundary Condition
  {ed07f3af-e1b4-44c9-bcbb-b87e4ac3d54c}, !- Outside Boundary Condition Object
  NoSun,                                  !- Sun Exposure
  NoWind,                                 !- Wind Exposure
  ,                                       !- View Factor to Ground
  ,                                       !- Number of Vertices
  4.572, -9.144, 0,                       !- X,Y,Z Vertex 1 {m}
  4.572, 0, 0,                            !- X,Y,Z Vertex 2 {m}
  9.144, 0, 0,                            !- X,Y,Z Vertex 3 {m}
  9.144, -9.144, 0;                       !- X,Y,Z Vertex 4 {m}

OS:Surface,
  {c001207a-c03d-4767-a2da-e241c1732118}, !- Handle
  Surface 17,                             !- Name
  Wall,                                   !- Surface Type
  ,                                       !- Construction Name
  {d04b6fcc-7d44-41b5-8b11-7c8a0b86cad0}, !- Space Name
  Surface,                                !- Outside Boundary Condition
  {933d9e45-26fe-4fa1-b479-e4d4a431e736}, !- Outside Boundary Condition Object
  NoSun,                                  !- Sun Exposure
  NoWind,                                 !- Wind Exposure
  ,                                       !- View Factor to Ground
  ,                                       !- Number of Vertices
  4.572, 0, 2.4384,                       !- X,Y,Z Vertex 1 {m}
  4.572, 0, 0,                            !- X,Y,Z Vertex 2 {m}
  4.572, -9.144, 0,                       !- X,Y,Z Vertex 3 {m}
  4.572, -9.144, 2.4384;                  !- X,Y,Z Vertex 4 {m}

OS:ThermalZone,
  {9d3fa116-91a4-4055-b989-246afbe9b5fc}, !- Handle
  living zone|unit 3,                     !- Name
  ,                                       !- Multiplier
  ,                                       !- Ceiling Height {m}
  ,                                       !- Volume {m3}
  ,                                       !- Floor Area {m2}
  ,                                       !- Zone Inside Convection Algorithm
  ,                                       !- Zone Outside Convection Algorithm
  ,                                       !- Zone Conditioning Equipment List Name
  {0b921a34-b451-45ad-b7e5-c59caf478acb}, !- Zone Air Inlet Port List
  {e87c2c0c-6887-4f5b-9792-50db505eb5d9}, !- Zone Air Exhaust Port List
  {f90e9e4c-63a9-45ca-a93e-217285caa495}, !- Zone Air Node Name
  ,                                       !- Zone Return Air Node Name
  ,                                       !- Primary Daylighting Control Name
  ,                                       !- Fraction of Zone Controlled by Primary Daylighting Control
  ,                                       !- Secondary Daylighting Control Name
  ,                                       !- Fraction of Zone Controlled by Secondary Daylighting Control
  ,                                       !- Illuminance Map Name
  ,                                       !- Group Rendering Name
  ,                                       !- Thermostat Name
  No;                                     !- Use Ideal Air Loads

OS:Node,
  {d262b033-3851-47c0-befc-e51496b9c3aa}, !- Handle
  Node 3,                                 !- Name