!- NOTE: Auto-generated from /test/osw_files/SFA_4units_1story_UB_UA_3Beds_2Baths_Denver.osw

OS:Version,
  {ca1a02bc-d24e-4654-b524-9eee76ca1991}, !- Handle
  2.6.2;                                  !- Version Identifier

OS:Building,
  {c1da6824-e71a-4b31-9c2d-5b7e5862f005}, !- Handle
  Building 1,                             !- Name
  ,                                       !- Building Sector Type
  0,                                      !- North Axis {deg}
  ,                                       !- Nominal Floor to Floor Height {m}
  ,                                       !- Space Type Name
  ,                                       !- Default Construction Set Name
  ,                                       !- Default Schedule Set Name
  2,                                      !- Standards Number of Stories
  1,                                      !- Standards Number of Above Ground Stories
  singlefamilyattached,                   !- Standards Building Type
  4;                                      !- Standards Number of Living Units

OS:Facility,
  {d1416c6b-f01f-47a1-bc3a-7af9bf86faf4}; !- Handle

OS:Site,
  {35973937-e002-4a48-8659-68c6830099e9}, !- Handle
  Denver Intl Ap_CO_USA,                  !- Name
  39.83,                                  !- Latitude {deg}
  -104.65,                                !- Longitude {deg}
  -7,                                     !- Time Zone {hr}
  1650,                                   !- Elevation {m}
  ;                                       !- Terrain

OS:SimulationControl,
  {0eef45db-37d7-401c-b017-ec4602f76322}, !- Handle
  ,                                       !- Do Zone Sizing Calculation
  ,                                       !- Do System Sizing Calculation
  ,                                       !- Do Plant Sizing Calculation
  No;                                     !- Run Simulation for Sizing Periods

OS:Sizing:Parameters,
  {214e51b0-6021-4a58-8777-bbd7bfc94471}, !- Handle
  1.25,                                   !- Heating Sizing Factor
  1.15;                                   !- Cooling Sizing Factor

OS:Timestep,
  {20c5060c-8670-4edd-8fa1-5cb7f4893fd6}, !- Handle
  6;                                      !- Number of Timesteps per Hour

OS:ShadowCalculation,
  {b18556b2-62a8-407a-bf37-58c672920d09}, !- Handle
  20,                                     !- Calculation Frequency
  200;                                    !- Maximum Figures in Shadow Overlap Calculations

OS:HeatBalanceAlgorithm,
  {fa2f9062-b734-4b2a-9765-31be6bcf3c80}, !- Handle
  ConductionTransferFunction,             !- Algorithm
  200;                                    !- Surface Temperature Upper Limit {C}

OS:RunPeriod,
  {68f4c450-3f7b-4461-8723-1df86eefb322}, !- Handle
  Run Period 1,                           !- Name
  1,                                      !- Begin Month
  1,                                      !- Begin Day of Month
  12,                                     !- End Month
  31,                                     !- End Day of Month
  ,                                       !- Use Weather File Holidays and Special Days
  ,                                       !- Use Weather File Daylight Saving Period
  ,                                       !- Apply Weekend Holiday Rule
  ,                                       !- Use Weather File Rain Indicators
  ,                                       !- Use Weather File Snow Indicators
  ;                                       !- Number of Times Runperiod to be Repeated

OS:LifeCycleCost:Parameters,
  {7d46be8e-67f8-457d-9c56-95e39292722e}, !- Handle
  ,                                       !- Analysis Type
  ,                                       !- Discounting Convention
  ,                                       !- Inflation Approach
  ,                                       !- Real Discount Rate
  ,                                       !- Nominal Discount Rate
  ,                                       !- Inflation
  ,                                       !- Base Date Month
  ,                                       !- Base Date Year
  ,                                       !- Service Date Month
  ,                                       !- Service Date Year
  ;                                       !- Length of Study Period in Years

OS:ThermalZone,
  {e99ff6be-58ab-416d-9a9d-fd0a89fc79a4}, !- Handle
  living zone,                            !- Name
  ,                                       !- Multiplier
  ,                                       !- Ceiling Height {m}
  ,                                       !- Volume {m3}
  ,                                       !- Floor Area {m2}
  ,                                       !- Zone Inside Convection Algorithm
  ,                                       !- Zone Outside Convection Algorithm
  ,                                       !- Zone Conditioning Equipment List Name
  {b65ebbd6-3f22-4514-bc6b-06d250cca4a7}, !- Zone Air Inlet Port List
  {6043b26a-bd7d-43dc-b6b9-13182f2ceffd}, !- Zone Air Exhaust Port List
  {96e00309-eedb-46ff-a54b-9984780f33d6}, !- Zone Air Node Name
  {9adc7080-4ba9-4c59-ac2c-9bfc8fa7f2de}, !- Zone Return Air Port List
  ,                                       !- Primary Daylighting Control Name
  ,                                       !- Fraction of Zone Controlled by Primary Daylighting Control
  ,                                       !- Secondary Daylighting Control Name
  ,                                       !- Fraction of Zone Controlled by Secondary Daylighting Control
  ,                                       !- Illuminance Map Name
  ,                                       !- Group Rendering Name
  ,                                       !- Thermostat Name
  No;                                     !- Use Ideal Air Loads

OS:Node,
  {1ba0064e-f93e-4651-99fa-55c24eef82e7}, !- Handle
  Node 1,                                 !- Name
  {96e00309-eedb-46ff-a54b-9984780f33d6}, !- Inlet Port
  ;                                       !- Outlet Port

OS:Connection,
  {96e00309-eedb-46ff-a54b-9984780f33d6}, !- Handle
  {d40312b1-3149-4ece-ab10-0dcbf635f31a}, !- Name
  {e99ff6be-58ab-416d-9a9d-fd0a89fc79a4}, !- Source Object
  11,                                     !- Outlet Port
  {1ba0064e-f93e-4651-99fa-55c24eef82e7}, !- Target Object
  2;                                      !- Inlet Port

OS:PortList,
  {b65ebbd6-3f22-4514-bc6b-06d250cca4a7}, !- Handle
  {852a57de-edf0-42e4-b32b-dd9573795194}, !- Name
  {e99ff6be-58ab-416d-9a9d-fd0a89fc79a4}; !- HVAC Component

OS:PortList,
  {6043b26a-bd7d-43dc-b6b9-13182f2ceffd}, !- Handle
  {06fc324f-5ac3-4a82-ba49-9268a85d7d4f}, !- Name
  {e99ff6be-58ab-416d-9a9d-fd0a89fc79a4}; !- HVAC Component

OS:PortList,
  {9adc7080-4ba9-4c59-ac2c-9bfc8fa7f2de}, !- Handle
  {d8014ea4-9149-4f41-8eac-e0c766ebac34}, !- Name
  {e99ff6be-58ab-416d-9a9d-fd0a89fc79a4}; !- HVAC Component

OS:Sizing:Zone,
  {35b82abb-6a44-44ee-a625-afdba5b61eb6}, !- Handle
  {e99ff6be-58ab-416d-9a9d-fd0a89fc79a4}, !- Zone or ZoneList Name
  SupplyAirTemperature,                   !- Zone Cooling Design Supply Air Temperature Input Method
  14,                                     !- Zone Cooling Design Supply Air Temperature {C}
  11.11,                                  !- Zone Cooling Design Supply Air Temperature Difference {deltaC}
  SupplyAirTemperature,                   !- Zone Heating Design Supply Air Temperature Input Method
  40,                                     !- Zone Heating Design Supply Air Temperature {C}
  11.11,                                  !- Zone Heating Design Supply Air Temperature Difference {deltaC}
  0.0085,                                 !- Zone Cooling Design Supply Air Humidity Ratio {kg-H2O/kg-air}
  0.008,                                  !- Zone Heating Design Supply Air Humidity Ratio {kg-H2O/kg-air}
  ,                                       !- Zone Heating Sizing Factor
  ,                                       !- Zone Cooling Sizing Factor
  DesignDay,                              !- Cooling Design Air Flow Method
  ,                                       !- Cooling Design Air Flow Rate {m3/s}
  ,                                       !- Cooling Minimum Air Flow per Zone Floor Area {m3/s-m2}
  ,                                       !- Cooling Minimum Air Flow {m3/s}
  ,                                       !- Cooling Minimum Air Flow Fraction
  DesignDay,                              !- Heating Design Air Flow Method
  ,                                       !- Heating Design Air Flow Rate {m3/s}
  ,                                       !- Heating Maximum Air Flow per Zone Floor Area {m3/s-m2}
  ,                                       !- Heating Maximum Air Flow {m3/s}
  ,                                       !- Heating Maximum Air Flow Fraction
  ,                                       !- Design Zone Air Distribution Effectiveness in Cooling Mode
  ,                                       !- Design Zone Air Distribution Effectiveness in Heating Mode
  No,                                     !- Account for Dedicated Outdoor Air System
  NeutralSupplyAir,                       !- Dedicated Outdoor Air System Control Strategy
  autosize,                               !- Dedicated Outdoor Air Low Setpoint Temperature for Design {C}
  autosize;                               !- Dedicated Outdoor Air High Setpoint Temperature for Design {C}

OS:ZoneHVAC:EquipmentList,
  {099e4ee6-be62-48a9-a3fa-3be0a02d3a60}, !- Handle
  Zone HVAC Equipment List 1,             !- Name
  {e99ff6be-58ab-416d-9a9d-fd0a89fc79a4}; !- Thermal Zone

OS:Space,
  {8dba1466-6690-45af-8399-58fff886dbb4}, !- Handle
  living space,                           !- Name
  {22ed41da-edea-4000-a75c-b50ba00b48a6}, !- Space Type Name
  ,                                       !- Default Construction Set Name
  ,                                       !- Default Schedule Set Name
  ,                                       !- Direction of Relative North {deg}
  ,                                       !- X Origin {m}
  ,                                       !- Y Origin {m}
  ,                                       !- Z Origin {m}
  ,                                       !- Building Story Name
  {e99ff6be-58ab-416d-9a9d-fd0a89fc79a4}, !- Thermal Zone Name
  ,                                       !- Part of Total Floor Area
  ,                                       !- Design Specification Outdoor Air Object Name
  {45d0fdf4-cb18-4156-b5a2-67f6ca89e17d}; !- Building Unit Name

OS:Surface,
  {31bc545e-944c-4f4f-80ae-f1b4ce990235}, !- Handle
  Surface 1,                              !- Name
  Floor,                                  !- Surface Type
  ,                                       !- Construction Name
  {8dba1466-6690-45af-8399-58fff886dbb4}, !- Space Name
  Surface,                                !- Outside Boundary Condition
  {3b31263f-fbe3-4e55-97e3-2c4b83560f0f}, !- Outside Boundary Condition Object
  NoSun,                                  !- Sun Exposure
  NoWind,                                 !- Wind Exposure
  ,                                       !- View Factor to Ground
  ,                                       !- Number of Vertices
  0, -12.9315688143396, 0,                !- X,Y,Z Vertex 1 {m}
  0, 0, 0,                                !- X,Y,Z Vertex 2 {m}
  6.46578440716979, 0, 0,                 !- X,Y,Z Vertex 3 {m}
  6.46578440716979, -12.9315688143396, 0; !- X,Y,Z Vertex 4 {m}

OS:Surface,
  {6a7b7dea-0713-47c3-b37d-024daf4fd5cc}, !- Handle
  Surface 2,                              !- Name
  Wall,                                   !- Surface Type
  ,                                       !- Construction Name
  {8dba1466-6690-45af-8399-58fff886dbb4}, !- Space Name
  Outdoors,                               !- Outside Boundary Condition
  ,                                       !- Outside Boundary Condition Object
  SunExposed,                             !- Sun Exposure
  WindExposed,                            !- Wind Exposure
  ,                                       !- View Factor to Ground
  ,                                       !- Number of Vertices
  0, 0, 2.4384,                           !- X,Y,Z Vertex 1 {m}
  0, 0, 0,                                !- X,Y,Z Vertex 2 {m}
  0, -12.9315688143396, 0,                !- X,Y,Z Vertex 3 {m}
  0, -12.9315688143396, 2.4384;           !- X,Y,Z Vertex 4 {m}

OS:Surface,
  {63563cc1-455e-46fb-929d-002408bb6e89}, !- Handle
  Surface 3,                              !- Name
  Wall,                                   !- Surface Type
  ,                                       !- Construction Name
  {8dba1466-6690-45af-8399-58fff886dbb4}, !- Space Name
  Outdoors,                               !- Outside Boundary Condition
  ,                                       !- Outside Boundary Condition Object
  SunExposed,                             !- Sun Exposure
  WindExposed,                            !- Wind Exposure
  ,                                       !- View Factor to Ground
  ,                                       !- Number of Vertices
  6.46578440716979, 0, 2.4384,            !- X,Y,Z Vertex 1 {m}
  6.46578440716979, 0, 0,                 !- X,Y,Z Vertex 2 {m}
  0, 0, 0,                                !- X,Y,Z Vertex 3 {m}
  0, 0, 2.4384;                           !- X,Y,Z Vertex 4 {m}

OS:Surface,
  {36427b6e-e4ba-40e4-a858-47565551fe38}, !- Handle
  Surface 4,                              !- Name
  Wall,                                   !- Surface Type
  ,                                       !- Construction Name
  {8dba1466-6690-45af-8399-58fff886dbb4}, !- Space Name
  Surface,                                !- Outside Boundary Condition
  {9255d99b-8f8d-499f-b925-ec67d35fac67}, !- Outside Boundary Condition Object
  NoSun,                                  !- Sun Exposure
  NoWind,                                 !- Wind Exposure
  ,                                       !- View Factor to Ground
  ,                                       !- Number of Vertices
  6.46578440716979, -12.9315688143396, 2.4384, !- X,Y,Z Vertex 1 {m}
  6.46578440716979, -12.9315688143396, 0, !- X,Y,Z Vertex 2 {m}
  6.46578440716979, 0, 0,                 !- X,Y,Z Vertex 3 {m}
  6.46578440716979, 0, 2.4384;            !- X,Y,Z Vertex 4 {m}

OS:Surface,
  {546e7da9-c2c0-447f-a34a-65028011422f}, !- Handle
  Surface 5,                              !- Name
  Wall,                                   !- Surface Type
  ,                                       !- Construction Name
  {8dba1466-6690-45af-8399-58fff886dbb4}, !- Space Name
  Outdoors,                               !- Outside Boundary Condition
  ,                                       !- Outside Boundary Condition Object
  SunExposed,                             !- Sun Exposure
  WindExposed,                            !- Wind Exposure
  ,                                       !- View Factor to Ground
  ,                                       !- Number of Vertices
  0, -12.9315688143396, 2.4384,           !- X,Y,Z Vertex 1 {m}
  0, -12.9315688143396, 0,                !- X,Y,Z Vertex 2 {m}
  6.46578440716979, -12.9315688143396, 0, !- X,Y,Z Vertex 3 {m}
  6.46578440716979, -12.9315688143396, 2.4384; !- X,Y,Z Vertex 4 {m}

OS:Surface,
  {f42f61a3-fb42-4609-a8c1-e1820659d52e}, !- Handle
  Surface 6,                              !- Name
  RoofCeiling,                            !- Surface Type
  ,                                       !- Construction Name
  {8dba1466-6690-45af-8399-58fff886dbb4}, !- Space Name
  Surface,                                !- Outside Boundary Condition
  {78b1a9e1-99c7-409f-824e-2bdc787e3465}, !- Outside Boundary Condition Object
  NoSun,                                  !- Sun Exposure
  NoWind,                                 !- Wind Exposure
  ,                                       !- View Factor to Ground
  ,                                       !- Number of Vertices
  6.46578440716979, -12.9315688143396, 2.4384, !- X,Y,Z Vertex 1 {m}
  6.46578440716979, 0, 2.4384,            !- X,Y,Z Vertex 2 {m}
  0, 0, 2.4384,                           !- X,Y,Z Vertex 3 {m}
  0, -12.9315688143396, 2.4384;           !- X,Y,Z Vertex 4 {m}

OS:SpaceType,
  {22ed41da-edea-4000-a75c-b50ba00b48a6}, !- Handle
  Space Type 1,                           !- Name
  ,                                       !- Default Construction Set Name
  ,                                       !- Default Schedule Set Name
  ,                                       !- Group Rendering Name
  ,                                       !- Design Specification Outdoor Air Object Name
  ,                                       !- Standards Building Type
  living;                                 !- Standards Space Type

OS:ThermalZone,
  {0ad0c68d-9dc6-434e-a988-a8ca439f21b9}, !- Handle
  living zone|unit 2,                     !- Name
  ,                                       !- Multiplier
  ,                                       !- Ceiling Height {m}
  ,                                       !- Volume {m3}
  ,                                       !- Floor Area {m2}
  ,                                       !- Zone Inside Convection Algorithm
  ,                                       !- Zone Outside Convection Algorithm
  ,                                       !- Zone Conditioning Equipment List Name
  {5128b205-78fa-45dd-a28c-7bcba73ae792}, !- Zone Air Inlet Port List
  {02fc7283-5c1f-4898-8c0e-0387b068cace}, !- Zone Air Exhaust Port List
  {42c82b68-9613-42d9-925c-9642a2d3bb88}, !- Zone Air Node Name
  {9d20ca8b-9c2a-42d0-8e07-e34ff45c38b6}, !- Zone Return Air Port List
  ,                                       !- Primary Daylighting Control Name
  ,                                       !- Fraction of Zone Controlled by Primary Daylighting Control
  ,                                       !- Secondary Daylighting Control Name
  ,                                       !- Fraction of Zone Controlled by Secondary Daylighting Control
  ,                                       !- Illuminance Map Name
  ,                                       !- Group Rendering Name
  ,                                       !- Thermostat Name
  No;                                     !- Use Ideal Air Loads

OS:Node,
  {e0a03c7a-32c1-47bd-9041-e28f15200325}, !- Handle
  Node 2,                                 !- Name
  {42c82b68-9613-42d9-925c-9642a2d3bb88}, !- Inlet Port
  ;                                       !- Outlet Port

OS:Connection,
  {42c82b68-9613-42d9-925c-9642a2d3bb88}, !- Handle
  {f641ab5e-efd3-4980-b279-f4f9b2b42b75}, !- Name
  {0ad0c68d-9dc6-434e-a988-a8ca439f21b9}, !- Source Object
  11,                                     !- Outlet Port
  {e0a03c7a-32c1-47bd-9041-e28f15200325}, !- Target Object
  2;                                      !- Inlet Port

OS:PortList,
  {5128b205-78fa-45dd-a28c-7bcba73ae792}, !- Handle
  {7f05799a-b13d-4571-a69a-18c7ecf3a627}, !- Name
  {0ad0c68d-9dc6-434e-a988-a8ca439f21b9}; !- HVAC Component

OS:PortList,
  {02fc7283-5c1f-4898-8c0e-0387b068cace}, !- Handle
  {b9892c17-09d8-4437-b70a-9a84db07334f}, !- Name
  {0ad0c68d-9dc6-434e-a988-a8ca439f21b9}; !- HVAC Component

OS:PortList,
  {9d20ca8b-9c2a-42d0-8e07-e34ff45c38b6}, !- Handle
  {91cb7459-271f-4c29-9d35-2809bce444b6}, !- Name
  {0ad0c68d-9dc6-434e-a988-a8ca439f21b9}; !- HVAC Component

OS:Sizing:Zone,
  {29b0bb34-9901-4a1a-923f-b71823707336}, !- Handle
  {0ad0c68d-9dc6-434e-a988-a8ca439f21b9}, !- Zone or ZoneList Name
  SupplyAirTemperature,                   !- Zone Cooling Design Supply Air Temperature Input Method
  14,                                     !- Zone Cooling Design Supply Air Temperature {C}
  11.11,                                  !- Zone Cooling Design Supply Air Temperature Difference {deltaC}
  SupplyAirTemperature,                   !- Zone Heating Design Supply Air Temperature Input Method
  40,                                     !- Zone Heating Design Supply Air Temperature {C}
  11.11,                                  !- Zone Heating Design Supply Air Temperature Difference {deltaC}
  0.0085,                                 !- Zone Cooling Design Supply Air Humidity Ratio {kg-H2O/kg-air}
  0.008,                                  !- Zone Heating Design Supply Air Humidity Ratio {kg-H2O/kg-air}
  ,                                       !- Zone Heating Sizing Factor
  ,                                       !- Zone Cooling Sizing Factor
  DesignDay,                              !- Cooling Design Air Flow Method
  ,                                       !- Cooling Design Air Flow Rate {m3/s}
  ,                                       !- Cooling Minimum Air Flow per Zone Floor Area {m3/s-m2}
  ,                                       !- Cooling Minimum Air Flow {m3/s}
  ,                                       !- Cooling Minimum Air Flow Fraction
  DesignDay,                              !- Heating Design Air Flow Method
  ,                                       !- Heating Design Air Flow Rate {m3/s}
  ,                                       !- Heating Maximum Air Flow per Zone Floor Area {m3/s-m2}
  ,                                       !- Heating Maximum Air Flow {m3/s}
  ,                                       !- Heating Maximum Air Flow Fraction
  ,                                       !- Design Zone Air Distribution Effectiveness in Cooling Mode
  ,                                       !- Design Zone Air Distribution Effectiveness in Heating Mode
  No,                                     !- Account for Dedicated Outdoor Air System
  NeutralSupplyAir,                       !- Dedicated Outdoor Air System Control Strategy
  autosize,                               !- Dedicated Outdoor Air Low Setpoint Temperature for Design {C}
  autosize;                               !- Dedicated Outdoor Air High Setpoint Temperature for Design {C}

OS:ZoneHVAC:EquipmentList,
  {e6b85b85-8d74-4a03-8208-ef6d2009e52b}, !- Handle
  Zone HVAC Equipment List 2,             !- Name
  {0ad0c68d-9dc6-434e-a988-a8ca439f21b9}; !- Thermal Zone

OS:Space,
  {b2007e01-679c-4f38-b57a-43c9f0f7c48c}, !- Handle
  living space|unit 2|story 1,            !- Name
  {22ed41da-edea-4000-a75c-b50ba00b48a6}, !- Space Type Name
  ,                                       !- Default Construction Set Name
  ,                                       !- Default Schedule Set Name
  -0,                                     !- Direction of Relative North {deg}
  0,                                      !- X Origin {m}
  0,                                      !- Y Origin {m}
  0,                                      !- Z Origin {m}
  ,                                       !- Building Story Name
  {0ad0c68d-9dc6-434e-a988-a8ca439f21b9}, !- Thermal Zone Name
  ,                                       !- Part of Total Floor Area
  ,                                       !- Design Specification Outdoor Air Object Name
  {70a734ac-b67b-4d89-a5c4-2e5a109d5783}; !- Building Unit Name

OS:Surface,
  {50b7f528-2904-4571-885b-26146b3e45a6}, !- Handle
  Surface 12,                             !- Name
  RoofCeiling,                            !- Surface Type
  ,                                       !- Construction Name
  {b2007e01-679c-4f38-b57a-43c9f0f7c48c}, !- Space Name
  Surface,                                !- Outside Boundary Condition
  {6a8d9d65-c1f6-45a5-a6ec-a75211ca3cff}, !- Outside Boundary Condition Object
  NoSun,                                  !- Sun Exposure
  NoWind,                                 !- Wind Exposure
  ,                                       !- View Factor to Ground
  ,                                       !- Number of Vertices
  12.9315688143396, -12.9315688143396, 2.4384, !- X,Y,Z Vertex 1 {m}
  12.9315688143396, 0, 2.4384,            !- X,Y,Z Vertex 2 {m}
  6.46578440716979, 0, 2.4384,            !- X,Y,Z Vertex 3 {m}
  6.46578440716979, -12.9315688143396, 2.4384; !- X,Y,Z Vertex 4 {m}

OS:Surface,
  {4ab69268-9531-4eaf-a40e-da34d28c7888}, !- Handle
  Surface 13,                             !- Name
  Floor,                                  !- Surface Type
  ,                                       !- Construction Name
  {b2007e01-679c-4f38-b57a-43c9f0f7c48c}, !- Space Name
  Surface,                                !- Outside Boundary Condition
  {3dba0ec2-3db3-4484-b6bf-7e91facafda4}, !- Outside Boundary Condition Object
  NoSun,                                  !- Sun Exposure
  NoWind,                                 !- Wind Exposure
  ,                                       !- View Factor to Ground
  ,                                       !- Number of Vertices
  6.46578440716979, -12.9315688143396, 0, !- X,Y,Z Vertex 1 {m}
  6.46578440716979, 0, 0,                 !- X,Y,Z Vertex 2 {m}
  12.9315688143396, 0, 0,                 !- X,Y,Z Vertex 3 {m}
  12.9315688143396, -12.9315688143396, 0; !- X,Y,Z Vertex 4 {m}

OS:Surface,
  {1438eb55-d4ef-4a9e-9966-14c4482c822b}, !- Handle
  Surface 14,                             !- Name
  Wall,                                   !- Surface Type
  ,                                       !- Construction Name
  {b2007e01-679c-4f38-b57a-43c9f0f7c48c}, !- Space Name
  Outdoors,                               !- Outside Boundary Condition
  ,                                       !- Outside Boundary Condition Object
  SunExposed,                             !- Sun Exposure
  WindExposed,                            !- Wind Exposure
  ,                                       !- View Factor to Ground
  ,                                       !- Number of Vertices
  12.9315688143396, 0, 2.4384,            !- X,Y,Z Vertex 1 {m}
  12.9315688143396, 0, 0,                 !- X,Y,Z Vertex 2 {m}
  6.46578440716979, 0, 0,                 !- X,Y,Z Vertex 3 {m}
  6.46578440716979, 0, 2.4384;            !- X,Y,Z Vertex 4 {m}

OS:Surface,
  {1c25cd46-60f7-473c-8e11-22307b3e2ab6}, !- Handle
  Surface 15,                             !- Name
  Wall,                                   !- Surface Type
  ,                                       !- Construction Name
  {b2007e01-679c-4f38-b57a-43c9f0f7c48c}, !- Space Name
  Surface,                                !- Outside Boundary Condition
  {4f7cb4c4-13f4-4a84-94e3-fedbda98aac2}, !- Outside Boundary Condition Object
  NoSun,                                  !- Sun Exposure
  NoWind,                                 !- Wind Exposure
  ,                                       !- View Factor to Ground
  ,                                       !- Number of Vertices
  12.9315688143396, -12.9315688143396, 2.4384, !- X,Y,Z Vertex 1 {m}
  12.9315688143396, -12.9315688143396, 0, !- X,Y,Z Vertex 2 {m}
  12.9315688143396, 0, 0,                 !- X,Y,Z Vertex 3 {m}
  12.9315688143396, 0, 2.4384;            !- X,Y,Z Vertex 4 {m}

OS:Surface,
  {9255d99b-8f8d-499f-b925-ec67d35fac67}, !- Handle
  Surface 16,                             !- Name
  Wall,                                   !- Surface Type
  ,                                       !- Construction Name
  {b2007e01-679c-4f38-b57a-43c9f0f7c48c}, !- Space Name
  Surface,                                !- Outside Boundary Condition
  {36427b6e-e4ba-40e4-a858-47565551fe38}, !- Outside Boundary Condition Object
  NoSun,                                  !- Sun Exposure
  NoWind,                                 !- Wind Exposure
  ,                                       !- View Factor to Ground
  ,                                       !- Number of Vertices
  6.46578440716979, 0, 2.4384,            !- X,Y,Z Vertex 1 {m}
  6.46578440716979, 0, 0,                 !- X,Y,Z Vertex 2 {m}
  6.46578440716979, -12.9315688143396, 0, !- X,Y,Z Vertex 3 {m}
  6.46578440716979, -12.9315688143396, 2.4384; !- X,Y,Z Vertex 4 {m}

OS:Surface,
  {5d594b2e-2be3-441b-b4ba-e5891b5b3d2c}, !- Handle
  Surface 17,                             !- Name
  Wall,                                   !- Surface Type
  ,                                       !- Construction Name
  {b2007e01-679c-4f38-b57a-43c9f0f7c48c}, !- Space Name
  Outdoors,                               !- Outside Boundary Condition
  ,                                       !- Outside Boundary Condition Object
  SunExposed,                             !- Sun Exposure
  WindExposed,                            !- Wind Exposure
  ,                                       !- View Factor to Ground
  ,                                       !- Number of Vertices
  6.46578440716979, -12.9315688143396, 2.4384, !- X,Y,Z Vertex 1 {m}
  6.46578440716979, -12.9315688143396, 0, !- X,Y,Z Vertex 2 {m}
  12.9315688143396, -12.9315688143396, 0, !- X,Y,Z Vertex 3 {m}
  12.9315688143396, -12.9315688143396, 2.4384; !- X,Y,Z Vertex 4 {m}

OS:ThermalZone,
  {5bdcffe9-86d8-4bb0-b7bf-8765b6e04b41}, !- Handle
  living zone|unit 3,                     !- Name
  ,                                       !- Multiplier
  ,                                       !- Ceiling Height {m}
  ,                                       !- Volume {m3}
  ,                                       !- Floor Area {m2}
  ,                                       !- Zone Inside Convection Algorithm
  ,                                       !- Zone Outside Convection Algorithm
  ,                                       !- Zone Conditioning Equipment List Name
  {04038bf5-888e-4ca4-a18a-7f4d3f36e3b9}, !- Zone Air Inlet Port List
  {88f034f1-48ab-4f6e-b6aa-2a22e2e718c1}, !- Zone Air Exhaust Port List
  {849210cc-03b6-4b32-8725-654c7a5193fc}, !- Zone Air Node Name
  {789b63a9-d187-4d30-9fa1-1a34f242be10}, !- Zone Return Air Port List
  ,                                       !- Primary Daylighting Control Name
  ,                                       !- Fraction of Zone Controlled by Primary Daylighting Control
  ,                                       !- Secondary Daylighting Control Name