!- NOTE: Auto-generated from /test/osw_files/SFA_10units_2story_FB_UA_3Beds_2Baths_Denver.osw

OS:Version,
  {677ceb15-11df-4965-bad7-d0eb766cb53e}, !- Handle
  2.5.1;                                  !- Version Identifier

OS:Building,
  {db34a847-15f7-45dc-94c0-114a7ee07cfd}, !- Handle
  Building 1,                             !- Name
  ,                                       !- Building Sector Type
  0,                                      !- North Axis {deg}
  ,                                       !- Nominal Floor to Floor Height {m}
  ,                                       !- Space Type Name
  ,                                       !- Default Construction Set Name
  ,                                       !- Default Schedule Set Name
  3,                                      !- Standards Number of Stories
  2,                                      !- Standards Number of Above Ground Stories
  singlefamilyattached,                   !- Standards Building Type
  10;                                     !- Standards Number of Living Units

OS:Facility,
  {fa14176d-b54c-43ae-a176-c5025062ea3f}; !- Handle

OS:Site,
  {7623ff3d-f66b-450c-a730-cb134fd24da0}, !- Handle
  Denver Intl Ap_CO_USA,                  !- Name
  39.83,                                  !- Latitude {deg}
  -104.65,                                !- Longitude {deg}
  -7,                                     !- Time Zone {hr}
  1650,                                   !- Elevation {m}
  ;                                       !- Terrain

OS:SimulationControl,
  {beec37df-88bb-44b9-8e76-279b067b2a28}, !- Handle
  ,                                       !- Do Zone Sizing Calculation
  ,                                       !- Do System Sizing Calculation
  ,                                       !- Do Plant Sizing Calculation
  No;                                     !- Run Simulation for Sizing Periods

OS:Sizing:Parameters,
  {439aa10f-5bc5-46ac-8b04-f5112c3e2cab}, !- Handle
  1.25,                                   !- Heating Sizing Factor
  1.15;                                   !- Cooling Sizing Factor

OS:Timestep,
  {60ef7908-3ce9-422c-bad9-e4def5f3a8f7}, !- Handle
  6;                                      !- Number of Timesteps per Hour

OS:ShadowCalculation,
  {2f548f86-a27d-4a0b-b601-bf26064ab2cd}, !- Handle
  20,                                     !- Calculation Frequency
  200;                                    !- Maximum Figures in Shadow Overlap Calculations

OS:HeatBalanceAlgorithm,
  {e7b2326d-1a64-4100-9fd1-1e467f4583f0}, !- Handle
  ConductionTransferFunction,             !- Algorithm
  200;                                    !- Surface Temperature Upper Limit {C}

OS:RunPeriod,
  {af8c43f6-c12b-4c75-8f96-10a4dc952467}, !- Handle
  Run Period 1,                           !- Name
  1,                                      !- Begin Month
  1,                                      !- Begin Day of Month
  12,                                     !- End Month
  31,                                     !- End Day of Month
  ,                                       !- Use Weather File Holidays and Special Days
  ,                                       !- Use Weather File Daylight Saving Period
  ,                                       !- Apply Weekend Holiday Rule
  ,                                       !- Use Weather File Rain Indicators
  ,                                       !- Use Weather File Snow Indicators
  ;                                       !- Number of Times Runperiod to be Repeated

OS:LifeCycleCost:Parameters,
  {26357da9-8c9e-4a22-b4dd-a046f89e5cc8}, !- Handle
  ,                                       !- Analysis Type
  ,                                       !- Discounting Convention
  ,                                       !- Inflation Approach
  ,                                       !- Real Discount Rate
  ,                                       !- Nominal Discount Rate
  ,                                       !- Inflation
  ,                                       !- Base Date Month
  ,                                       !- Base Date Year
  ,                                       !- Service Date Month
  ,                                       !- Service Date Year
  ;                                       !- Length of Study Period in Years

OS:ThermalZone,
  {dda28033-038a-40bb-9737-dd888bc304c4}, !- Handle
  living zone,                            !- Name
  ,                                       !- Multiplier
  ,                                       !- Ceiling Height {m}
  ,                                       !- Volume {m3}
  ,                                       !- Floor Area {m2}
  ,                                       !- Zone Inside Convection Algorithm
  ,                                       !- Zone Outside Convection Algorithm
  ,                                       !- Zone Conditioning Equipment List Name
  {74b3eb85-a63b-49b6-b468-cc509b712d92}, !- Zone Air Inlet Port List
  {4e7c844b-7c0d-4b6b-843d-f7aad6a6f90f}, !- Zone Air Exhaust Port List
  {90e233fe-944e-490e-8815-41df0dce731b}, !- Zone Air Node Name
  ,                                       !- Zone Return Air Node Name
  ,                                       !- Primary Daylighting Control Name
  ,                                       !- Fraction of Zone Controlled by Primary Daylighting Control
  ,                                       !- Secondary Daylighting Control Name
  ,                                       !- Fraction of Zone Controlled by Secondary Daylighting Control
  ,                                       !- Illuminance Map Name
  ,                                       !- Group Rendering Name
  ,                                       !- Thermostat Name
  No;                                     !- Use Ideal Air Loads

OS:Node,
  {22a233ff-24f7-48d4-93d4-26f793ea4693}, !- Handle
  Node 1,                                 !- Name
  {90e233fe-944e-490e-8815-41df0dce731b}, !- Inlet Port
  ;                                       !- Outlet Port

OS:Connection,
  {90e233fe-944e-490e-8815-41df0dce731b}, !- Handle
  {814b6639-9f42-4145-8c96-dac293ab81c0}, !- Name
  {dda28033-038a-40bb-9737-dd888bc304c4}, !- Source Object
  11,                                     !- Outlet Port
  {22a233ff-24f7-48d4-93d4-26f793ea4693}, !- Target Object
  2;                                      !- Inlet Port

OS:PortList,
  {74b3eb85-a63b-49b6-b468-cc509b712d92}, !- Handle
  {8d819bfe-810a-47e9-bae7-67117a08ef83}, !- Name
  {dda28033-038a-40bb-9737-dd888bc304c4}; !- HVAC Component

OS:PortList,
  {4e7c844b-7c0d-4b6b-843d-f7aad6a6f90f}, !- Handle
  {175c182b-0deb-44a9-8e12-2dd1fd2b536b}, !- Name
  {dda28033-038a-40bb-9737-dd888bc304c4}; !- HVAC Component

OS:Sizing:Zone,
  {0b8366ce-5eec-4e10-b381-7aaaeb05f2ad}, !- Handle
  {dda28033-038a-40bb-9737-dd888bc304c4}, !- Zone or ZoneList Name
  SupplyAirTemperature,                   !- Zone Cooling Design Supply Air Temperature Input Method
  14,                                     !- Zone Cooling Design Supply Air Temperature {C}
  11.11,                                  !- Zone Cooling Design Supply Air Temperature Difference {deltaC}
  SupplyAirTemperature,                   !- Zone Heating Design Supply Air Temperature Input Method
  40,                                     !- Zone Heating Design Supply Air Temperature {C}
  11.11,                                  !- Zone Heating Design Supply Air Temperature Difference {deltaC}
  0.0085,                                 !- Zone Cooling Design Supply Air Humidity Ratio {kg-H2O/kg-air}
  0.008,                                  !- Zone Heating Design Supply Air Humidity Ratio {kg-H2O/kg-air}
  ,                                       !- Zone Heating Sizing Factor
  ,                                       !- Zone Cooling Sizing Factor
  DesignDay,                              !- Cooling Design Air Flow Method
  ,                                       !- Cooling Design Air Flow Rate {m3/s}
  ,                                       !- Cooling Minimum Air Flow per Zone Floor Area {m3/s-m2}
  ,                                       !- Cooling Minimum Air Flow {m3/s}
  ,                                       !- Cooling Minimum Air Flow Fraction
  DesignDay,                              !- Heating Design Air Flow Method
  ,                                       !- Heating Design Air Flow Rate {m3/s}
  ,                                       !- Heating Maximum Air Flow per Zone Floor Area {m3/s-m2}
  ,                                       !- Heating Maximum Air Flow {m3/s}
  ,                                       !- Heating Maximum Air Flow Fraction
  ,                                       !- Design Zone Air Distribution Effectiveness in Cooling Mode
  ,                                       !- Design Zone Air Distribution Effectiveness in Heating Mode
  No,                                     !- Account for Dedicated Outdoor Air System
  NeutralSupplyAir,                       !- Dedicated Outdoor Air System Control Strategy
  autosize,                               !- Dedicated Outdoor Air Low Setpoint Temperature for Design {C}
  autosize;                               !- Dedicated Outdoor Air High Setpoint Temperature for Design {C}

OS:ZoneHVAC:EquipmentList,
  {c06ff8e8-d5a4-4316-b0ed-10286bb94b19}, !- Handle
  Zone HVAC Equipment List 1,             !- Name
  {dda28033-038a-40bb-9737-dd888bc304c4}; !- Thermal Zone

OS:Space,
  {249b3b71-7e00-46fc-8320-d40eda7b01aa}, !- Handle
  living space,                           !- Name
  {51907899-92bf-4602-9935-0fbb3fe60f8d}, !- Space Type Name
  ,                                       !- Default Construction Set Name
  ,                                       !- Default Schedule Set Name
  ,                                       !- Direction of Relative North {deg}
  ,                                       !- X Origin {m}
  ,                                       !- Y Origin {m}
  ,                                       !- Z Origin {m}
  ,                                       !- Building Story Name
  {dda28033-038a-40bb-9737-dd888bc304c4}, !- Thermal Zone Name
  ,                                       !- Part of Total Floor Area
  ,                                       !- Design Specification Outdoor Air Object Name
  {83577ff6-59db-4455-8c50-c43f37b4cff9}; !- Building Unit Name

OS:Surface,
  {ac25376e-ff67-4a0e-a56d-b0d99bcac5e0}, !- Handle
  Surface 1,                              !- Name
  Floor,                                  !- Surface Type
  ,                                       !- Construction Name
  {249b3b71-7e00-46fc-8320-d40eda7b01aa}, !- Space Name
  Surface,                                !- Outside Boundary Condition
  {08572aec-1410-4595-85c6-d3a711e6d962}, !- Outside Boundary Condition Object
  NoSun,                                  !- Sun Exposure
  NoWind,                                 !- Wind Exposure
  ,                                       !- View Factor to Ground
  ,                                       !- Number of Vertices
  0, -7.46604473600313, 0,                !- X,Y,Z Vertex 1 {m}
  0, 0, 0,                                !- X,Y,Z Vertex 2 {m}
  3.73302236800156, 0, 0,                 !- X,Y,Z Vertex 3 {m}
  3.73302236800156, -7.46604473600313, 0; !- X,Y,Z Vertex 4 {m}

OS:Surface,
  {37ea054b-1a92-4f99-855e-a91650ed7138}, !- Handle
  Surface 2,                              !- Name
  Wall,                                   !- Surface Type
  ,                                       !- Construction Name
  {249b3b71-7e00-46fc-8320-d40eda7b01aa}, !- Space Name
  Outdoors,                               !- Outside Boundary Condition
  ,                                       !- Outside Boundary Condition Object
  SunExposed,                             !- Sun Exposure
  WindExposed,                            !- Wind Exposure
  ,                                       !- View Factor to Ground
  ,                                       !- Number of Vertices
  0, 0, 2.4384,                           !- X,Y,Z Vertex 1 {m}
  0, 0, 0,                                !- X,Y,Z Vertex 2 {m}
  0, -7.46604473600313, 0,                !- X,Y,Z Vertex 3 {m}
  0, -7.46604473600313, 2.4384;           !- X,Y,Z Vertex 4 {m}

OS:Surface,
  {8582091b-7f7f-4cc6-aea9-4b60680a9715}, !- Handle
  Surface 3,                              !- Name
  Wall,                                   !- Surface Type
  ,                                       !- Construction Name
  {249b3b71-7e00-46fc-8320-d40eda7b01aa}, !- Space Name
  Outdoors,                               !- Outside Boundary Condition
  ,                                       !- Outside Boundary Condition Object
  SunExposed,                             !- Sun Exposure
  WindExposed,                            !- Wind Exposure
  ,                                       !- View Factor to Ground
  ,                                       !- Number of Vertices
  3.73302236800156, 0, 2.4384,            !- X,Y,Z Vertex 1 {m}
  3.73302236800156, 0, 0,                 !- X,Y,Z Vertex 2 {m}
  0, 0, 0,                                !- X,Y,Z Vertex 3 {m}
  0, 0, 2.4384;                           !- X,Y,Z Vertex 4 {m}

OS:Surface,
  {429b3aef-933f-4853-8f7b-a174f0d7b6ea}, !- Handle
  Surface 4,                              !- Name
  Wall,                                   !- Surface Type
  ,                                       !- Construction Name
  {249b3b71-7e00-46fc-8320-d40eda7b01aa}, !- Space Name
  Surface,                                !- Outside Boundary Condition
  {468d2f53-9450-47e3-9f27-22c300367971}, !- Outside Boundary Condition Object
  NoSun,                                  !- Sun Exposure
  NoWind,                                 !- Wind Exposure
  ,                                       !- View Factor to Ground
  ,                                       !- Number of Vertices
  3.73302236800156, -7.46604473600313, 2.4384, !- X,Y,Z Vertex 1 {m}
  3.73302236800156, -7.46604473600313, 0, !- X,Y,Z Vertex 2 {m}
  3.73302236800156, 0, 0,                 !- X,Y,Z Vertex 3 {m}
  3.73302236800156, 0, 2.4384;            !- X,Y,Z Vertex 4 {m}

OS:Surface,
  {6189b83e-cf95-4d3c-a93a-90bea8230172}, !- Handle
  Surface 5,                              !- Name
  Wall,                                   !- Surface Type
  ,                                       !- Construction Name
  {249b3b71-7e00-46fc-8320-d40eda7b01aa}, !- Space Name
  Outdoors,                               !- Outside Boundary Condition
  ,                                       !- Outside Boundary Condition Object
  SunExposed,                             !- Sun Exposure
  WindExposed,                            !- Wind Exposure
  ,                                       !- View Factor to Ground
  ,                                       !- Number of Vertices
  0, -7.46604473600313, 2.4384,           !- X,Y,Z Vertex 1 {m}
  0, -7.46604473600313, 0,                !- X,Y,Z Vertex 2 {m}
  3.73302236800156, -7.46604473600313, 0, !- X,Y,Z Vertex 3 {m}
  3.73302236800156, -7.46604473600313, 2.4384; !- X,Y,Z Vertex 4 {m}

OS:Surface,
  {4c1be58c-fa6b-4f37-8024-83914acb3838}, !- Handle
  Surface 6,                              !- Name
  RoofCeiling,                            !- Surface Type
  ,                                       !- Construction Name
  {249b3b71-7e00-46fc-8320-d40eda7b01aa}, !- Space Name
  Surface,                                !- Outside Boundary Condition
  {a45d8ece-34bd-4051-9150-9bbac80b036c}, !- Outside Boundary Condition Object
  NoSun,                                  !- Sun Exposure
  NoWind,                                 !- Wind Exposure
  ,                                       !- View Factor to Ground
  ,                                       !- Number of Vertices
  3.73302236800156, -7.46604473600313, 2.4384, !- X,Y,Z Vertex 1 {m}
  3.73302236800156, 0, 2.4384,            !- X,Y,Z Vertex 2 {m}
  0, 0, 2.4384,                           !- X,Y,Z Vertex 3 {m}
  0, -7.46604473600313, 2.4384;           !- X,Y,Z Vertex 4 {m}

OS:SpaceType,
  {51907899-92bf-4602-9935-0fbb3fe60f8d}, !- Handle
  Space Type 1,                           !- Name
  ,                                       !- Default Construction Set Name
  ,                                       !- Default Schedule Set Name
  ,                                       !- Group Rendering Name
  ,                                       !- Design Specification Outdoor Air Object Name
  ,                                       !- Standards Building Type
  living;                                 !- Standards Space Type

OS:Space,
  {1c874b93-fc9d-4306-bc41-05de121179a4}, !- Handle
  living space|story 2,                   !- Name
  {51907899-92bf-4602-9935-0fbb3fe60f8d}, !- Space Type Name
  ,                                       !- Default Construction Set Name
  ,                                       !- Default Schedule Set Name
  -0,                                     !- Direction of Relative North {deg}
  0,                                      !- X Origin {m}
  0,                                      !- Y Origin {m}
  2.4384,                                 !- Z Origin {m}
  ,                                       !- Building Story Name
  {dda28033-038a-40bb-9737-dd888bc304c4}, !- Thermal Zone Name
  ,                                       !- Part of Total Floor Area
  ,                                       !- Design Specification Outdoor Air Object Name
  {83577ff6-59db-4455-8c50-c43f37b4cff9}; !- Building Unit Name

OS:Surface,
  {d5159e8e-2b14-42d5-ab3f-ad68a894ee11}, !- Handle
  Surface 7,                              !- Name
  Wall,                                   !- Surface Type
  ,                                       !- Construction Name
  {1c874b93-fc9d-4306-bc41-05de121179a4}, !- Space Name
  Outdoors,                               !- Outside Boundary Condition
  ,                                       !- Outside Boundary Condition Object
  SunExposed,                             !- Sun Exposure
  WindExposed,                            !- Wind Exposure
  ,                                       !- View Factor to Ground
  ,                                       !- Number of Vertices
  0, -7.46604473600313, 2.4384,           !- X,Y,Z Vertex 1 {m}
  0, -7.46604473600313, 0,                !- X,Y,Z Vertex 2 {m}
  3.73302236800156, -7.46604473600313, 0, !- X,Y,Z Vertex 3 {m}
  3.73302236800156, -7.46604473600313, 2.4384; !- X,Y,Z Vertex 4 {m}

OS:Surface,
  {f9b9af78-7050-486c-ab32-a447854bfdd7}, !- Handle
  Surface 8,                              !- Name
  Wall,                                   !- Surface Type
  ,                                       !- Construction Name
  {1c874b93-fc9d-4306-bc41-05de121179a4}, !- Space Name
  Surface,                                !- Outside Boundary Condition
  {27f76807-b7a1-46f1-b6fc-2cdf35516a71}, !- Outside Boundary Condition Object
  NoSun,                                  !- Sun Exposure
  NoWind,                                 !- Wind Exposure
  ,                                       !- View Factor to Ground
  ,                                       !- Number of Vertices
  3.73302236800156, -7.46604473600313, 2.4384, !- X,Y,Z Vertex 1 {m}
  3.73302236800156, -7.46604473600313, 0, !- X,Y,Z Vertex 2 {m}
  3.73302236800156, 0, 0,                 !- X,Y,Z Vertex 3 {m}
  3.73302236800156, 0, 2.4384;            !- X,Y,Z Vertex 4 {m}

OS:Surface,
  {156ae546-de43-4334-a6e2-d77a45d29392}, !- Handle
  Surface 9,                              !- Name
  Wall,                                   !- Surface Type
  ,                                       !- Construction Name
  {1c874b93-fc9d-4306-bc41-05de121179a4}, !- Space Name
  Outdoors,                               !- Outside Boundary Condition
  ,                                       !- Outside Boundary Condition Object
  SunExposed,                             !- Sun Exposure
  WindExposed,                            !- Wind Exposure
  ,                                       !- View Factor to Ground
  ,                                       !- Number of Vertices
  0, 0, 2.4384,                           !- X,Y,Z Vertex 1 {m}
  0, 0, 0,                                !- X,Y,Z Vertex 2 {m}
  0, -7.46604473600313, 0,                !- X,Y,Z Vertex 3 {m}
  0, -7.46604473600313, 2.4384;           !- X,Y,Z Vertex 4 {m}

OS:Surface,
  {91889761-f2d1-4ab7-8bde-8617e04f665a}, !- Handle
  Surface 10,                             !- Name
  Wall,                                   !- Surface Type
  ,                                       !- Construction Name
  {1c874b93-fc9d-4306-bc41-05de121179a4}, !- Space Name
  Outdoors,                               !- Outside Boundary Condition
  ,                                       !- Outside Boundary Condition Object
  SunExposed,                             !- Sun Exposure
  WindExposed,                            !- Wind Exposure
  ,                                       !- View Factor to Ground
  ,                                       !- Number of Vertices
  3.73302236800156, 0, 2.4384,            !- X,Y,Z Vertex 1 {m}
  3.73302236800156, 0, 0,                 !- X,Y,Z Vertex 2 {m}
  0, 0, 0,                                !- X,Y,Z Vertex 3 {m}
  0, 0, 2.4384;                           !- X,Y,Z Vertex 4 {m}

OS:Surface,
  {1058ec23-1cfe-45c0-b0f0-bbd3c6fe3ffd}, !- Handle
  Surface 11,                             !- Name
  RoofCeiling,                            !- Surface Type
  ,                                       !- Construction Name
  {1c874b93-fc9d-4306-bc41-05de121179a4}, !- Space Name
  Surface,                                !- Outside Boundary Condition
  {62ce6f49-5655-4e39-96f1-74ea8628c520}, !- Outside Boundary Condition Object
  NoSun,                                  !- Sun Exposure
  NoWind,                                 !- Wind Exposure
  ,                                       !- View Factor to Ground
  ,                                       !- Number of Vertices
  3.73302236800156, -7.46604473600313, 2.4384, !- X,Y,Z Vertex 1 {m}
  3.73302236800156, 0, 2.4384,            !- X,Y,Z Vertex 2 {m}
  0, 0, 2.4384,                           !- X,Y,Z Vertex 3 {m}
  0, -7.46604473600313, 2.4384;           !- X,Y,Z Vertex 4 {m}

OS:Surface,
  {a45d8ece-34bd-4051-9150-9bbac80b036c}, !- Handle
  Surface 12,                             !- Name
  Floor,                                  !- Surface Type
  ,                                       !- Construction Name
  {1c874b93-fc9d-4306-bc41-05de121179a4}, !- Space Name
  Surface,                                !- Outside Boundary Condition
  {4c1be58c-fa6b-4f37-8024-83914acb3838}, !- Outside Boundary Condition Object
  NoSun,                                  !- Sun Exposure
  NoWind,                                 !- Wind Exposure
  ,                                       !- View Factor to Ground
  ,                                       !- Number of Vertices
  0, -7.46604473600313, 0,                !- X,Y,Z Vertex 1 {m}
  0, 0, 0,                                !- X,Y,Z Vertex 2 {m}
  3.73302236800156, 0, 0,                 !- X,Y,Z Vertex 3 {m}
  3.73302236800156, -7.46604473600313, 0; !- X,Y,Z Vertex 4 {m}

OS:ThermalZone,
  {2ce315fc-3723-46c3-bfd2-29235769a0ae}, !- Handle
  living zone|unit 2,                     !- Name
  ,                                       !- Multiplier
  ,                                       !- Ceiling Height {m}
  ,                                       !- Volume {m3}
  ,                                       !- Floor Area {m2}
  ,                                       !- Zone Inside Convection Algorithm
  ,                                       !- Zone Outside Convection Algorithm
  ,                                       !- Zone Conditioning Equipment List Name
  {baab092c-049e-4792-a7b6-37874d40888e}, !- Zone Air Inlet Port List
  {9e6880a4-89db-43a0-809a-6f5b568f99d6}, !- Zone Air Exhaust Port List
  {b4098c05-6369-44be-8845-3427457e9614}, !- Zone Air Node Name
  ,                                       !- Zone Return Air Node Name
  ,                                       !- Primary Daylighting Control Name
  ,                                       !- Fraction of Zone Controlled by Primary Daylighting Control
  ,                                       !- Secondary Daylighting Control Name
  ,                                       !- Fraction of Zone Controlled by Secondary Daylighting Control
  ,                                       !- Illuminance Map Name
  ,                                       !- Group Rendering Name
  ,                                       !- Thermostat Name
  No;                                     !- Use Ideal Air Loads

OS:Node,
  {fe03ca7d-fafc-4406-9381-0c0930d69d1f}, !- Handle
  Node 2,                                 !- Name
  {b4098c05-6369-44be-8845-3427457e9614}, !- Inlet Port
  ;                                       !- Outlet Port

OS:Connection,
  {b4098c05-6369-44be-8845-3427457e9614}, !- Handle
  {87ba5382-df47-4aec-bc0b-f34f48b8bd1f}, !- Name
  {2ce315fc-3723-46c3-bfd2-29235769a0ae}, !- Source Object
  11,                                     !- Outlet Port
  {fe03ca7d-fafc-4406-9381-0c0930d69d1f}, !- Target Object
  2;                                      !- Inlet Port

OS:PortList,
  {baab092c-049e-4792-a7b6-37874d40888e}, !- Handle
  {2f3726f7-5159-49b1-a2ef-6a318622ed77}, !- Name
  {2ce315fc-3723-46c3-bfd2-29235769a0ae}; !- HVAC Component

OS:PortList,
  {9e6880a4-89db-43a0-809a-6f5b568f99d6}, !- Handle
  {f8fbd62b-da63-443e-83f7-411b47652d86}, !- Name
  {2ce315fc-3723-46c3-bfd2-29235769a0ae}; !- HVAC Component

OS:Sizing:Zone,
  {11c0b50f-0a5b-4b57-999d-27473d826852}, !- Handle
  {2ce315fc-3723-46c3-bfd2-29235769a0ae}, !- Zone or ZoneList Name
  SupplyAirTemperature,                   !- Zone Cooling Design Supply Air Temperature Input Method
  14,                                     !- Zone Cooling Design Supply Air Temperature {C}
  11.11,                                  !- Zone Cooling Design Supply Air Temperature Difference {deltaC}
  SupplyAirTemperature,                   !- Zone Heating Design Supply Air Temperature Input Method
  40,                                     !- Zone Heating Design Supply Air Temperature {C}
  11.11,                                  !- Zone Heating Design Supply Air Temperature Difference {deltaC}
  0.0085,                                 !- Zone Cooling Design Supply Air Humidity Ratio {kg-H2O/kg-air}
  0.008,                                  !- Zone Heating Design Supply Air Humidity Ratio {kg-H2O/kg-air}
  ,                                       !- Zone Heating Sizing Factor
  ,                                       !- Zone Cooling Sizing Factor
  DesignDay,                              !- Cooling Design Air Flow Method
  ,                                       !- Cooling Design Air Flow Rate {m3/s}
  ,                                       !- Cooling Minimum Air Flow per Zone Floor Area {m3/s-m2}
  ,                                       !- Cooling Minimum Air Flow {m3/s}
  ,                                       !- Cooling Minimum Air Flow Fraction
  DesignDay,                              !- Heating Design Air Flow Method
  ,                                       !- Heating Design Air Flow Rate {m3/s}
  ,                                       !- Heating Maximum Air Flow per Zone Floor Area {m3/s-m2}
  ,                                       !- Heating Maximum Air Flow {m3/s}
  ,                                       !- Heating Maximum Air Flow Fraction
  ,                                       !- Design Zone Air Distribution Effectiveness in Cooling Mode
  ,                                       !- Design Zone Air Distribution Effectiveness in Heating Mode
  No,                                     !- Account for Dedicated Outdoor Air System
  NeutralSupplyAir,                       !- Dedicated Outdoor Air System Control Strategy
  autosize,                               !- Dedicated Outdoor Air Low Setpoint Temperature for Design {C}
  autosize;                               !- Dedicated Outdoor Air High Setpoint Temperature for Design {C}

OS:ZoneHVAC:EquipmentList,
  {cb72ee42-0544-4268-a9c1-ed69cf18d116}, !- Handle
  Zone HVAC Equipment List 2,             !- Name
  {2ce315fc-3723-46c3-bfd2-29235769a0ae}; !- Thermal Zone

OS:Space,
  {4dc433e1-8fd7-4803-a82b-a0de37396902}, !- Handle
  living space|unit 2|story 1,            !- Name
  {51907899-92bf-4602-9935-0fbb3fe60f8d}, !- Space Type Name
  ,                                       !- Default Construction Set Name
  ,                                       !- Default Schedule Set Name
  -0,                                     !- Direction of Relative North {deg}
  0,                                      !- X Origin {m}
  0,                                      !- Y Origin {m}
  0,                                      !- Z Origin {m}
  ,                                       !- Building Story Name
  {2ce315fc-3723-46c3-bfd2-29235769a0ae}, !- Thermal Zone Name
  ,                                       !- Part of Total Floor Area
  ,                                       !- Design Specification Outdoor Air Object Name
  {14a12483-f4f7-4ef6-acc2-5761e2fecb05}; !- Building Unit Name

OS:Surface,
  {5f95a3fd-dd28-4566-b9e3-78dd81d03f8c}, !- Handle
  Surface 18,                             !- Name
  Wall,                                   !- Surface Type
  ,                                       !- Construction Name
  {4dc433e1-8fd7-4803-a82b-a0de37396902}, !- Space Name
  Outdoors,                               !- Outside Boundary Condition
  ,                                       !- Outside Boundary Condition Object
  SunExposed,                             !- Sun Exposure
  WindExposed,                            !- Wind Exposure
  ,                                       !- View Factor to Ground