!- NOTE: Auto-generated from /test/osw_files/SFD_2000sqft_2story_SL_UA_AllLayersButWallSheathing_CeilingIns.osw

OS:Version,
  {ed7f7951-0ceb-4c12-93cf-7ec518446732}, !- Handle
  2.4.1;                                  !- Version Identifier

OS:Building,
  {bf305633-c5a1-4881-9edf-ca5e1a8e1274}, !- Handle
  Building,                               !- Name
  ,                                       !- Building Sector Type
  ,                                       !- North Axis {deg}
  ,                                       !- Nominal Floor to Floor Height {m}
  ,                                       !- Space Type Name
  ,                                       !- Default Construction Set Name
  ,                                       !- Default Schedule Set Name
  2,                                      !- Standards Number of Stories
  2,                                      !- Standards Number of Above Ground Stories
  singlefamilydetached,                   !- Standards Building Type
  1;                                      !- Standards Number of Living Units

OS:YearDescription,
  {513d8dda-86cb-442a-b01c-1f7f0e0ac70e}; !- Handle

OS:SimulationControl,
  {2c487a4c-bac9-4ac5-b669-1e49d9da7c2b}, !- Handle
  ,                                       !- Do Zone Sizing Calculation
  ,                                       !- Do System Sizing Calculation
  ,                                       !- Do Plant Sizing Calculation
  No,                                     !- Run Simulation for Sizing Periods
  ;                                       !- Run Simulation for Weather File Run Periods

OS:Timestep,
  {4ebc9f1e-4707-402e-9844-67eb1ffbd522}, !- Handle
  6;                                      !- Number of Timesteps per Hour

OS:RunPeriod,
  {28df894d-6af9-4fb8-8f56-df1753344aa3}, !- Handle
  Run Period,                             !- Name
  1,                                      !- Begin Month
  1,                                      !- Begin Day of Month
  12,                                     !- End Month
  31,                                     !- End Day of Month
  ,                                       !- Use Weather File Holidays and Special Days
  ,                                       !- Use Weather File Daylight Saving Period
  ,                                       !- Apply Weekend Holiday Rule
  ,                                       !- Use Weather File Rain Indicators
  ,                                       !- Use Weather File Snow Indicators
  ;                                       !- Number of Times Runperiod to be Repeated

OS:Sizing:Parameters,
  {dde5af6f-7923-4600-a28a-7556673a0266}, !- Handle
  1.0,                                    !- Heating Sizing Factor
  1.0;                                    !- Cooling Sizing Factor

OS:ShadowCalculation,
  {ca758bea-4416-4626-9bba-3d8795c79bd6}, !- Handle
  20,                                     !- Calculation Frequency
  200;                                    !- Maximum Figures in Shadow Overlap Calculations

OS:SurfaceConvectionAlgorithm:Inside,
  {aaabfc36-718a-4ab0-b622-f186ebb45230}, !- Handle
  TARP;                                   !- Algorithm

OS:SurfaceConvectionAlgorithm:Outside,
  {9a0a9f6f-4bbd-4b12-a121-9492a1fcd7d6}, !- Handle
  DOE-2;                                  !- Algorithm

OS:HeatBalanceAlgorithm,
  {9d93e563-e1e0-46d7-9e39-d1c8aceb7212}, !- Handle
  ConductionTransferFunction,             !- Algorithm
  200;                                    !- Surface Temperature Upper Limit {C}

OS:ZoneCapacitanceMultiplier:ResearchSpecial,
  {6bfced16-b16f-47f6-8223-f7e267d75d19}, !- Handle
  ,                                       !- Temperature Capacity Multiplier
  15,                                     !- Humidity Capacity Multiplier
  ;                                       !- Carbon Dioxide Capacity Multiplier

OS:ThermalZone,
  {6a9644e9-5911-43a4-a3bc-0428251b21f6}, !- Handle
  living zone,                            !- Name
  ,                                       !- Multiplier
  ,                                       !- Ceiling Height {m}
  ,                                       !- Volume {m3}
  ,                                       !- Floor Area {m2}
  ,                                       !- Zone Inside Convection Algorithm
  ,                                       !- Zone Outside Convection Algorithm
  ,                                       !- Zone Conditioning Equipment List Name
  {d9f152ed-1b1c-42f1-afb1-efb9db6380b5}, !- Zone Air Inlet Port List
  {2c79f905-7895-4e5a-b2b8-a71ee79bb111}, !- Zone Air Exhaust Port List
  {c27e3d02-85db-4f4e-8472-517a30ca0168}, !- Zone Air Node Name
  ,                                       !- Zone Return Air Node Name
  ,                                       !- Primary Daylighting Control Name
  ,                                       !- Fraction of Zone Controlled by Primary Daylighting Control
  ,                                       !- Secondary Daylighting Control Name
  ,                                       !- Fraction of Zone Controlled by Secondary Daylighting Control
  ,                                       !- Illuminance Map Name
  ,                                       !- Group Rendering Name
  ,                                       !- Thermostat Name
  No;                                     !- Use Ideal Air Loads

OS:Node,
  {cb9c6e6a-5249-4fb3-9d57-85429478aed8}, !- Handle
  Node 1,                                 !- Name
  {c27e3d02-85db-4f4e-8472-517a30ca0168}, !- Inlet Port
  ;                                       !- Outlet Port

OS:Connection,
  {c27e3d02-85db-4f4e-8472-517a30ca0168}, !- Handle
  {7aedf72b-97a4-4117-bbbb-2889964718f8}, !- Name
  {6a9644e9-5911-43a4-a3bc-0428251b21f6}, !- Source Object
  11,                                     !- Outlet Port
  {cb9c6e6a-5249-4fb3-9d57-85429478aed8}, !- Target Object
  2;                                      !- Inlet Port

OS:PortList,
  {d9f152ed-1b1c-42f1-afb1-efb9db6380b5}, !- Handle
  {9219a9c5-40b3-4b3a-8c24-34ce7bb903de}, !- Name
  {6a9644e9-5911-43a4-a3bc-0428251b21f6}; !- HVAC Component

OS:PortList,
  {2c79f905-7895-4e5a-b2b8-a71ee79bb111}, !- Handle
  {289212d6-a6e3-452e-96f3-0d31690ff537}, !- Name
  {6a9644e9-5911-43a4-a3bc-0428251b21f6}; !- HVAC Component

OS:Sizing:Zone,
  {7dfb9ce8-0f87-4284-b2fa-34e04194ea94}, !- Handle
  {6a9644e9-5911-43a4-a3bc-0428251b21f6}, !- Zone or ZoneList Name
  SupplyAirTemperature,                   !- Zone Cooling Design Supply Air Temperature Input Method
  14,                                     !- Zone Cooling Design Supply Air Temperature {C}
  11.11,                                  !- Zone Cooling Design Supply Air Temperature Difference {deltaC}
  SupplyAirTemperature,                   !- Zone Heating Design Supply Air Temperature Input Method
  40,                                     !- Zone Heating Design Supply Air Temperature {C}
  11.11,                                  !- Zone Heating Design Supply Air Temperature Difference {deltaC}
  0.0085,                                 !- Zone Cooling Design Supply Air Humidity Ratio {kg-H2O/kg-air}
  0.008,                                  !- Zone Heating Design Supply Air Humidity Ratio {kg-H2O/kg-air}
  ,                                       !- Zone Heating Sizing Factor
  ,                                       !- Zone Cooling Sizing Factor
  DesignDay,                              !- Cooling Design Air Flow Method
  ,                                       !- Cooling Design Air Flow Rate {m3/s}
  ,                                       !- Cooling Minimum Air Flow per Zone Floor Area {m3/s-m2}
  ,                                       !- Cooling Minimum Air Flow {m3/s}
  ,                                       !- Cooling Minimum Air Flow Fraction
  DesignDay,                              !- Heating Design Air Flow Method
  ,                                       !- Heating Design Air Flow Rate {m3/s}
  ,                                       !- Heating Maximum Air Flow per Zone Floor Area {m3/s-m2}
  ,                                       !- Heating Maximum Air Flow {m3/s}
  ,                                       !- Heating Maximum Air Flow Fraction
  ,                                       !- Design Zone Air Distribution Effectiveness in Cooling Mode
  ,                                       !- Design Zone Air Distribution Effectiveness in Heating Mode
  No,                                     !- Account for Dedicated Outdoor Air System
  NeutralSupplyAir,                       !- Dedicated Outdoor Air System Control Strategy
  autosize,                               !- Dedicated Outdoor Air Low Setpoint Temperature for Design {C}
  autosize;                               !- Dedicated Outdoor Air High Setpoint Temperature for Design {C}

OS:ZoneHVAC:EquipmentList,
  {341060ad-1d8a-4d51-be51-059fbc14eab0}, !- Handle
  Zone HVAC Equipment List 1,             !- Name
  {6a9644e9-5911-43a4-a3bc-0428251b21f6}; !- Thermal Zone

OS:Space,
  {3d4f3d47-c228-4ae1-b6da-ecafc88c7cd2}, !- Handle
  living space,                           !- Name
  {f7e5a13d-b3ce-409d-a670-cd3d1526646d}, !- Space Type Name
  ,                                       !- Default Construction Set Name
  ,                                       !- Default Schedule Set Name
  -0,                                     !- Direction of Relative North {deg}
  0,                                      !- X Origin {m}
  0,                                      !- Y Origin {m}
  0,                                      !- Z Origin {m}
  ,                                       !- Building Story Name
  {6a9644e9-5911-43a4-a3bc-0428251b21f6}, !- Thermal Zone Name
  ,                                       !- Part of Total Floor Area
  ,                                       !- Design Specification Outdoor Air Object Name
  {381e8f46-07de-4744-8fbb-13718779e5f4}; !- Building Unit Name

OS:Surface,
  {392803a0-207c-4bf0-8f0c-c26f25ad9bd6}, !- Handle
  Surface 1,                              !- Name
  Floor,                                  !- Surface Type
  ,                                       !- Construction Name
  {3d4f3d47-c228-4ae1-b6da-ecafc88c7cd2}, !- Space Name
  Ground,                                 !- Outside Boundary Condition
  ,                                       !- Outside Boundary Condition Object
  NoSun,                                  !- Sun Exposure
  NoWind,                                 !- Wind Exposure
  ,                                       !- View Factor to Ground
  ,                                       !- Number of Vertices
  0, 0, 0,                                !- X,Y,Z Vertex 1 {m}
  0, 6.81553519541936, 0,                 !- X,Y,Z Vertex 2 {m}
  13.6310703908387, 6.81553519541936, 0,  !- X,Y,Z Vertex 3 {m}
  13.6310703908387, 0, 0;                 !- X,Y,Z Vertex 4 {m}

OS:Surface,
  {57a2be43-370e-4353-93f2-a879a6fe982d}, !- Handle
  Surface 2,                              !- Name
  Wall,                                   !- Surface Type
  {631e0a8f-2588-4e78-aed9-460902daa71a}, !- Construction Name
  {3d4f3d47-c228-4ae1-b6da-ecafc88c7cd2}, !- Space Name
  Outdoors,                               !- Outside Boundary Condition
  ,                                       !- Outside Boundary Condition Object
  SunExposed,                             !- Sun Exposure
  WindExposed,                            !- Wind Exposure
  ,                                       !- View Factor to Ground
  ,                                       !- Number of Vertices
  0, 6.81553519541936, 2.4384,            !- X,Y,Z Vertex 1 {m}
  0, 6.81553519541936, 0,                 !- X,Y,Z Vertex 2 {m}
  0, 0, 0,                                !- X,Y,Z Vertex 3 {m}
  0, 0, 2.4384;                           !- X,Y,Z Vertex 4 {m}

OS:Surface,
  {81fbe958-a9fc-450f-897d-3592741c8f42}, !- Handle
  Surface 3,                              !- Name
  Wall,                                   !- Surface Type
  {631e0a8f-2588-4e78-aed9-460902daa71a}, !- Construction Name
  {3d4f3d47-c228-4ae1-b6da-ecafc88c7cd2}, !- Space Name
  Outdoors,                               !- Outside Boundary Condition
  ,                                       !- Outside Boundary Condition Object
  SunExposed,                             !- Sun Exposure
  WindExposed,                            !- Wind Exposure
  ,                                       !- View Factor to Ground
  ,                                       !- Number of Vertices
  13.6310703908387, 6.81553519541936, 2.4384, !- X,Y,Z Vertex 1 {m}
  13.6310703908387, 6.81553519541936, 0,  !- X,Y,Z Vertex 2 {m}
  0, 6.81553519541936, 0,                 !- X,Y,Z Vertex 3 {m}
  0, 6.81553519541936, 2.4384;            !- X,Y,Z Vertex 4 {m}

OS:Surface,
  {56cb6ee8-997a-4d52-a28e-1a2efd0c724d}, !- Handle
  Surface 4,                              !- Name
  Wall,                                   !- Surface Type
  {631e0a8f-2588-4e78-aed9-460902daa71a}, !- Construction Name
  {3d4f3d47-c228-4ae1-b6da-ecafc88c7cd2}, !- Space Name
  Outdoors,                               !- Outside Boundary Condition
  ,                                       !- Outside Boundary Condition Object
  SunExposed,                             !- Sun Exposure
  WindExposed,                            !- Wind Exposure
  ,                                       !- View Factor to Ground
  ,                                       !- Number of Vertices
  13.6310703908387, 0, 2.4384,            !- X,Y,Z Vertex 1 {m}
  13.6310703908387, 0, 0,                 !- X,Y,Z Vertex 2 {m}
  13.6310703908387, 6.81553519541936, 0,  !- X,Y,Z Vertex 3 {m}
  13.6310703908387, 6.81553519541936, 2.4384; !- X,Y,Z Vertex 4 {m}

OS:Surface,
  {1f4f5470-0510-4e39-82f4-d5e06cbf21ef}, !- Handle
  Surface 5,                              !- Name
  Wall,                                   !- Surface Type
  {631e0a8f-2588-4e78-aed9-460902daa71a}, !- Construction Name
  {3d4f3d47-c228-4ae1-b6da-ecafc88c7cd2}, !- Space Name
  Outdoors,                               !- Outside Boundary Condition
  ,                                       !- Outside Boundary Condition Object
  SunExposed,                             !- Sun Exposure
  WindExposed,                            !- Wind Exposure
  ,                                       !- View Factor to Ground
  ,                                       !- Number of Vertices
  0, 0, 2.4384,                           !- X,Y,Z Vertex 1 {m}
  0, 0, 0,                                !- X,Y,Z Vertex 2 {m}
  13.6310703908387, 0, 0,                 !- X,Y,Z Vertex 3 {m}
  13.6310703908387, 0, 2.4384;            !- X,Y,Z Vertex 4 {m}

OS:Surface,
  {70f2184f-aa65-4512-921c-553235ecc45c}, !- Handle
  Surface 6,                              !- Name
  RoofCeiling,                            !- Surface Type
  {eff1c552-2fbf-4692-a83d-efe718edc7f7}, !- Construction Name
  {3d4f3d47-c228-4ae1-b6da-ecafc88c7cd2}, !- Space Name
  Surface,                                !- Outside Boundary Condition
  {5ec20d4a-f6c4-42fc-a6bc-7d7cf68d770b}, !- Outside Boundary Condition Object
  NoSun,                                  !- Sun Exposure
  NoWind,                                 !- Wind Exposure
  ,                                       !- View Factor to Ground
  ,                                       !- Number of Vertices
  13.6310703908387, 0, 2.4384,            !- X,Y,Z Vertex 1 {m}
  13.6310703908387, 6.81553519541936, 2.4384, !- X,Y,Z Vertex 2 {m}
  0, 6.81553519541936, 2.4384,            !- X,Y,Z Vertex 3 {m}
  0, 0, 2.4384;                           !- X,Y,Z Vertex 4 {m}

OS:SpaceType,
  {f7e5a13d-b3ce-409d-a670-cd3d1526646d}, !- Handle
  Space Type 1,                           !- Name
  ,                                       !- Default Construction Set Name
  ,                                       !- Default Schedule Set Name
  ,                                       !- Group Rendering Name
  ,                                       !- Design Specification Outdoor Air Object Name
  ,                                       !- Standards Building Type
  living;                                 !- Standards Space Type

OS:Space,
  {ea5f9d42-6090-429b-bcd1-c3d27a3b5db3}, !- Handle
  living space|story 2,                   !- Name
  {f7e5a13d-b3ce-409d-a670-cd3d1526646d}, !- Space Type Name
  ,                                       !- Default Construction Set Name
  ,                                       !- Default Schedule Set Name
  -0,                                     !- Direction of Relative North {deg}
  0,                                      !- X Origin {m}
  0,                                      !- Y Origin {m}
  2.4384,                                 !- Z Origin {m}
  ,                                       !- Building Story Name
  {6a9644e9-5911-43a4-a3bc-0428251b21f6}, !- Thermal Zone Name
  ,                                       !- Part of Total Floor Area
  ,                                       !- Design Specification Outdoor Air Object Name
  {381e8f46-07de-4744-8fbb-13718779e5f4}; !- Building Unit Name

OS:Surface,
  {5ec20d4a-f6c4-42fc-a6bc-7d7cf68d770b}, !- Handle
  Surface 7,                              !- Name
  Floor,                                  !- Surface Type
  {eff1c552-2fbf-4692-a83d-efe718edc7f7}, !- Construction Name
  {ea5f9d42-6090-429b-bcd1-c3d27a3b5db3}, !- Space Name
  Surface,                                !- Outside Boundary Condition
  {70f2184f-aa65-4512-921c-553235ecc45c}, !- Outside Boundary Condition Object
  NoSun,                                  !- Sun Exposure
  NoWind,                                 !- Wind Exposure
  ,                                       !- View Factor to Ground
  ,                                       !- Number of Vertices
  0, 0, 0,                                !- X,Y,Z Vertex 1 {m}
  0, 6.81553519541936, 0,                 !- X,Y,Z Vertex 2 {m}
  13.6310703908387, 6.81553519541936, 0,  !- X,Y,Z Vertex 3 {m}
  13.6310703908387, 0, 0;                 !- X,Y,Z Vertex 4 {m}

OS:Surface,
  {600cabf6-5ce0-4780-9d4b-7d27c5239334}, !- Handle
  Surface 8,                              !- Name
  Wall,                                   !- Surface Type
  {631e0a8f-2588-4e78-aed9-460902daa71a}, !- Construction Name
  {ea5f9d42-6090-429b-bcd1-c3d27a3b5db3}, !- Space Name
  Outdoors,                               !- Outside Boundary Condition
  ,                                       !- Outside Boundary Condition Object
  SunExposed,                             !- Sun Exposure
  WindExposed,                            !- Wind Exposure
  ,                                       !- View Factor to Ground
  ,                                       !- Number of Vertices
  0, 6.81553519541936, 2.4384,            !- X,Y,Z Vertex 1 {m}
  0, 6.81553519541936, 0,                 !- X,Y,Z Vertex 2 {m}
  0, 0, 0,                                !- X,Y,Z Vertex 3 {m}
  0, 0, 2.4384;                           !- X,Y,Z Vertex 4 {m}

OS:Surface,
  {a6c89db9-684f-4695-878d-aa5233610bfd}, !- Handle
  Surface 9,                              !- Name
  Wall,                                   !- Surface Type
  {631e0a8f-2588-4e78-aed9-460902daa71a}, !- Construction Name
  {ea5f9d42-6090-429b-bcd1-c3d27a3b5db3}, !- Space Name
  Outdoors,                               !- Outside Boundary Condition
  ,                                       !- Outside Boundary Condition Object
  SunExposed,                             !- Sun Exposure
  WindExposed,                            !- Wind Exposure
  ,                                       !- View Factor to Ground
  ,                                       !- Number of Vertices
  13.6310703908387, 6.81553519541936, 2.4384, !- X,Y,Z Vertex 1 {m}
  13.6310703908387, 6.81553519541936, 0,  !- X,Y,Z Vertex 2 {m}
  0, 6.81553519541936, 0,                 !- X,Y,Z Vertex 3 {m}
  0, 6.81553519541936, 2.4384;            !- X,Y,Z Vertex 4 {m}

OS:Surface,
  {5061b2a9-fae1-4f45-80da-ed015f117528}, !- Handle
  Surface 10,                             !- Name
  Wall,                                   !- Surface Type
  {631e0a8f-2588-4e78-aed9-460902daa71a}, !- Construction Name
  {ea5f9d42-6090-429b-bcd1-c3d27a3b5db3}, !- Space Name
  Outdoors,                               !- Outside Boundary Condition
  ,                                       !- Outside Boundary Condition Object
  SunExposed,                             !- Sun Exposure
  WindExposed,                            !- Wind Exposure
  ,                                       !- View Factor to Ground
  ,                                       !- Number of Vertices
  13.6310703908387, 0, 2.4384,            !- X,Y,Z Vertex 1 {m}
  13.6310703908387, 0, 0,                 !- X,Y,Z Vertex 2 {m}
  13.6310703908387, 6.81553519541936, 0,  !- X,Y,Z Vertex 3 {m}
  13.6310703908387, 6.81553519541936, 2.4384; !- X,Y,Z Vertex 4 {m}

OS:Surface,
  {18c5fb32-1c74-4071-b764-871017ebf18a}, !- Handle
  Surface 11,                             !- Name
  Wall,                                   !- Surface Type
  {631e0a8f-2588-4e78-aed9-460902daa71a}, !- Construction Name
  {ea5f9d42-6090-429b-bcd1-c3d27a3b5db3}, !- Space Name
  Outdoors,                               !- Outside Boundary Condition
  ,                                       !- Outside Boundary Condition Object
  SunExposed,                             !- Sun Exposure
  WindExposed,                            !- Wind Exposure
  ,                                       !- View Factor to Ground
  ,                                       !- Number of Vertices
  0, 0, 2.4384,                           !- X,Y,Z Vertex 1 {m}
  0, 0, 0,                                !- X,Y,Z Vertex 2 {m}
  13.6310703908387, 0, 0,                 !- X,Y,Z Vertex 3 {m}
  13.6310703908387, 0, 2.4384;            !- X,Y,Z Vertex 4 {m}

OS:Surface,
  {18e5c614-5024-4e5c-87b9-94e5cb84fdb4}, !- Handle
  Surface 12,                             !- Name
  RoofCeiling,                            !- Surface Type
  {1fa4ac6c-705f-4b44-a0c7-39dbb7838716}, !- Construction Name
  {ea5f9d42-6090-429b-bcd1-c3d27a3b5db3}, !- Space Name
  Surface,                                !- Outside Boundary Condition
  {069a4d70-074e-44d1-a641-8d4c2f2105dc}, !- Outside Boundary Condition Object
  NoSun,                                  !- Sun Exposure
  NoWind,                                 !- Wind Exposure
  ,                                       !- View Factor to Ground
  ,                                       !- Number of Vertices
  13.6310703908387, 0, 2.4384,            !- X,Y,Z Vertex 1 {m}
  13.6310703908387, 6.81553519541936, 2.4384, !- X,Y,Z Vertex 2 {m}
  0, 6.81553519541936, 2.4384,            !- X,Y,Z Vertex 3 {m}
  0, 0, 2.4384;                           !- X,Y,Z Vertex 4 {m}

OS:Surface,
  {069a4d70-074e-44d1-a641-8d4c2f2105dc}, !- Handle
  Surface 13,                             !- Name
  Floor,                                  !- Surface Type
  {c8c077b2-543b-4e74-8ddb-9c99528e9beb}, !- Construction Name
  {99dcfab8-74a9-46bc-8687-37fbc0260f4c}, !- Space Name
  Surface,                                !- Outside Boundary Condition
  {18e5c614-5024-4e5c-87b9-94e5cb84fdb4}, !- Outside Boundary Condition Object
  NoSun,                                  !- Sun Exposure
  NoWind,                                 !- Wind Exposure
  ,                                       !- View Factor to Ground
  ,                                       !- Number of Vertices
  0, 6.81553519541936, 0,                 !- X,Y,Z Vertex 1 {m}
  13.6310703908387, 6.81553519541936, 0,  !- X,Y,Z Vertex 2 {m}
  13.6310703908387, 0, 0,                 !- X,Y,Z Vertex 3 {m}
  0, 0, 0;                                !- X,Y,Z Vertex 4 {m}

OS:Surface,
  {9294166a-bb1e-4bc2-afa1-13bbe94113e2}, !- Handle
  Surface 14,                             !- Name
  RoofCeiling,                            !- Surface Type
  {c0d7380d-7aba-41fb-970d-42e59c391df0}, !- Construction Name
  {99dcfab8-74a9-46bc-8687-37fbc0260f4c}, !- Space Name
  Outdoors,                               !- Outside Boundary Condition
  ,                                       !- Outside Boundary Condition Object
  SunExposed,                             !- Sun Exposure
  WindExposed,                            !- Wind Exposure
  ,                                       !- View Factor to Ground
  ,                                       !- Number of Vertices
  13.6310703908387, 3.40776759770968, 1.70388379885484, !- X,Y,Z Vertex 1 {m}
  0, 3.40776759770968, 1.70388379885484,  !- X,Y,Z Vertex 2 {m}
  0, 0, 0,                                !- X,Y,Z Vertex 3 {m}
  13.6310703908387, 0, 0;                 !- X,Y,Z Vertex 4 {m}

OS:Surface,
  {f125eb76-8fb9-4e3e-a85c-9e32ba62d09c}, !- Handle
  Surface 15,                             !- Name
  RoofCeiling,                            !- Surface Type
  {c0d7380d-7aba-41fb-970d-42e59c391df0}, !- Construction Name
  {99dcfab8-74a9-46bc-8687-37fbc0260f4c}, !- Space Name
  Outdoors,                               !- Outside Boundary Condition
  ,                                       !- Outside Boundary Condition Object
  SunExposed,                             !- Sun Exposure
  WindExposed,                            !- Wind Exposure
  ,                                       !- View Factor to Ground
  ,                                       !- Number of Vertices
  0, 3.40776759770968, 1.70388379885484,  !- X,Y,Z Vertex 1 {m}
  13.6310703908387, 3.40776759770968, 1.70388379885484, !- X,Y,Z Vertex 2 {m}
  13.6310703908387, 6.81553519541936, 0,  !- X,Y,Z Vertex 3 {m}
  0, 6.81553519541936, 0;                 !- X,Y,Z Vertex 4 {m}

OS:Surface,
  {dabeb250-fb7f-4599-a533-b70177dd4a0e}, !- Handle
  Surface 16,                             !- Name
  Wall,                                   !- Surface Type
  {4e32cce2-cf50-46d8-8b9d-a1a7b8a8d590}, !- Construction Name
  {99dcfab8-74a9-46bc-8687-37fbc0260f4c}, !- Space Name
  Outdoors,                               !- Outside Boundary Condition
  ,                                       !- Outside Boundary Condition Object
  SunExposed,                             !- Sun Exposure
  WindExposed,                            !- Wind Exposure
  ,                                       !- View Factor to Ground
  ,                                       !- Number of Vertices
  0, 3.40776759770968, 1.70388379885484,  !- X,Y,Z Vertex 1 {m}
  0, 6.81553519541936, 0,                 !- X,Y,Z Vertex 2 {m}
  0, 0, 0;                                !- X,Y,Z Vertex 3 {m}

OS:Surface,
  {b7cfbc25-3cc5-4714-bc30-7b505ad8acc3}, !- Handle
  Surface 17,                             !- Name
  Wall,                                   !- Surface Type
  {4e32cce2-cf50-46d8-8b9d-a1a7b8a8d590}, !- Construction Name
  {99dcfab8-74a9-46bc-8687-37fbc0260f4c}, !- Space Name
  Outdoors,                               !- Outside Boundary Condition
  ,                                       !- Outside Boundary Condition Object
  SunExposed,                             !- Sun Exposure
  WindExposed,                            !- Wind Exposure
  ,                                       !- View Factor to Ground
  ,                                       !- Number of Vertices
  13.6310703908387, 3.40776759770968, 1.70388379885484, !- X,Y,Z Vertex 1 {m}
  13.6310703908387, 0, 0,                 !- X,Y,Z Vertex 2 {m}
  13.6310703908387, 6.81553519541936, 0;  !- X,Y,Z Vertex 3 {m}

OS:Space,
  {99dcfab8-74a9-46bc-8687-37fbc0260f4c}, !- Handle
  unfinished attic space,                 !- Name
  {16ada6d0-1707-4c90-b4df-9e27a42dccba}, !- Space Type Name
  ,                                       !- Default Construction Set Name
  ,                                       !- Default Schedule Set Name
  -0,                                     !- Direction of Relative North {deg}
  0,                                      !- X Origin {m}
  0,                                      !- Y Origin {m}
  4.8768,                                 !- Z Origin {m}
  ,                                       !- Building Story Name
  {a23fc777-1a62-48fc-9ad0-8e246222a487}; !- Thermal Zone Name

OS:ThermalZone,
  {a23fc777-1a62-48fc-9ad0-8e246222a487}, !- Handle
  unfinished attic zone,                  !- Name
  ,                                       !- Multiplier
  ,                                       !- Ceiling Height {m}
  ,                                       !- Volume {m3}
  ,                                       !- Floor Area {m2}
  ,                                       !- Zone Inside Convection Algorithm
  ,                                       !- Zone Outside Convection Algorithm
  ,                                       !- Zone Conditioning Equipment List Name
  {68ebd8b8-e9fb-4b4a-8026-65ebce5a84c4}, !- Zone Air Inlet Port List
  {65c84f1c-60b6-4911-a27f-0b0609ddd31b}, !- Zone Air Exhaust Port List
  {109728a1-d254-4603-b393-ac23c624780a}, !- Zone Air Node Name
  ,                                       !- Zone Return Air Node Name
  ,                                       !- Primary Daylighting Control Name
  ,                                       !- Fraction of Zone Controlled by Primary Daylighting Control
  ,                                       !- Secondary Daylighting Control Name
  ,                                       !- Fraction of Zone Controlled by Secondary Daylighting Control
  ,                                       !- Illuminance Map Name
  ,                                       !- Group Rendering Name
  ,                                       !- Thermostat Name
  No;                                     !- Use Ideal Air Loads

OS:Node,
  {fd8651bc-ffd6-40b5-9e58-9594027a4a54}, !- Handle
  Node 2,                                 !- Name
  {109728a1-d254-4603-b393-ac23c624780a}, !- Inlet Port
  ;                                       !- Outlet Port

OS:Connection,
  {109728a1-d254-4603-b393-ac23c624780a}, !- Handle
  {a4148c33-64ee-48c2-addc-6a01743be7ad}, !- Name