!- NOTE: Auto-generated from /test/osw_files/MF_8units_1story_SL_Denver_ExteriorCorridor.osw

OS:Version,
  {72636631-691e-45a0-923b-629f9d91108b}, !- Handle
  2.5.0;                                  !- Version Identifier

OS:Building,
  {bf305633-c5a1-4881-9edf-ca5e1a8e1274}, !- Handle
  Building,                               !- Name
  ,                                       !- Building Sector Type
  0,                                      !- North Axis {deg}
  ,                                       !- Nominal Floor to Floor Height {m}
  ,                                       !- Space Type Name
  ,                                       !- Default Construction Set Name
  ,                                       !- Default Schedule Set Name
  1,                                      !- Standards Number of Stories
  1,                                      !- Standards Number of Above Ground Stories
  multifamily,                            !- Standards Building Type
  8;                                      !- Standards Number of Living Units

OS:YearDescription,
  {513d8dda-86cb-442a-b01c-1f7f0e0ac70e}, !- Handle
  ,                                       !- Calendar Year
  Monday;                                 !- Day of Week for Start Day

OS:SimulationControl,
  {2c487a4c-bac9-4ac5-b669-1e49d9da7c2b}, !- Handle
  ,                                       !- Do Zone Sizing Calculation
  ,                                       !- Do System Sizing Calculation
  ,                                       !- Do Plant Sizing Calculation
  No,                                     !- Run Simulation for Sizing Periods
  ;                                       !- Run Simulation for Weather File Run Periods

OS:Timestep,
  {4ebc9f1e-4707-402e-9844-67eb1ffbd522}, !- Handle
  6;                                      !- Number of Timesteps per Hour

OS:RunPeriod,
  {28df894d-6af9-4fb8-8f56-df1753344aa3}, !- Handle
  Run Period,                             !- Name
  1,                                      !- Begin Month
  1,                                      !- Begin Day of Month
  12,                                     !- End Month
  31,                                     !- End Day of Month
  ,                                       !- Use Weather File Holidays and Special Days
  ,                                       !- Use Weather File Daylight Saving Period
  ,                                       !- Apply Weekend Holiday Rule
  ,                                       !- Use Weather File Rain Indicators
  ,                                       !- Use Weather File Snow Indicators
  ;                                       !- Number of Times Runperiod to be Repeated

OS:Sizing:Parameters,
  {dde5af6f-7923-4600-a28a-7556673a0266}, !- Handle
  1.0,                                    !- Heating Sizing Factor
  1.0;                                    !- Cooling Sizing Factor

OS:ShadowCalculation,
  {ca758bea-4416-4626-9bba-3d8795c79bd6}, !- Handle
  20,                                     !- Calculation Frequency
  200;                                    !- Maximum Figures in Shadow Overlap Calculations

OS:SurfaceConvectionAlgorithm:Inside,
  {aaabfc36-718a-4ab0-b622-f186ebb45230}, !- Handle
  TARP;                                   !- Algorithm

OS:SurfaceConvectionAlgorithm:Outside,
  {9a0a9f6f-4bbd-4b12-a121-9492a1fcd7d6}, !- Handle
  DOE-2;                                  !- Algorithm

OS:HeatBalanceAlgorithm,
  {9d93e563-e1e0-46d7-9e39-d1c8aceb7212}, !- Handle
  ConductionTransferFunction,             !- Algorithm
  200;                                    !- Surface Temperature Upper Limit {C}

OS:ZoneCapacitanceMultiplier:ResearchSpecial,
  {6bfced16-b16f-47f6-8223-f7e267d75d19}, !- Handle
  ,                                       !- Temperature Capacity Multiplier
  15,                                     !- Humidity Capacity Multiplier
  ;                                       !- Carbon Dioxide Capacity Multiplier

OS:ThermalZone,
  {ef15684b-ce6a-4ac4-9e15-ee17e9d5d9c3}, !- Handle
  living zone,                            !- Name
  ,                                       !- Multiplier
  ,                                       !- Ceiling Height {m}
  ,                                       !- Volume {m3}
  ,                                       !- Floor Area {m2}
  ,                                       !- Zone Inside Convection Algorithm
  ,                                       !- Zone Outside Convection Algorithm
  ,                                       !- Zone Conditioning Equipment List Name
  {787edeb6-3ada-4320-8903-6215221d4e9e}, !- Zone Air Inlet Port List
  {c9a79b1a-526f-4e7b-80a1-e0d3dc510cd5}, !- Zone Air Exhaust Port List
  {39c316a2-84c1-42d2-9660-7b66d06a56ba}, !- Zone Air Node Name
  ,                                       !- Zone Return Air Node Name
  ,                                       !- Primary Daylighting Control Name
  ,                                       !- Fraction of Zone Controlled by Primary Daylighting Control
  ,                                       !- Secondary Daylighting Control Name
  ,                                       !- Fraction of Zone Controlled by Secondary Daylighting Control
  ,                                       !- Illuminance Map Name
  ,                                       !- Group Rendering Name
  ,                                       !- Thermostat Name
  No;                                     !- Use Ideal Air Loads

OS:Node,
  {b1845d6f-4334-429e-9a30-3ff0dbf2267b}, !- Handle
  Node 1,                                 !- Name
  {39c316a2-84c1-42d2-9660-7b66d06a56ba}, !- Inlet Port
  ;                                       !- Outlet Port

OS:Connection,
  {39c316a2-84c1-42d2-9660-7b66d06a56ba}, !- Handle
  {b11edf5f-db82-4ed9-becb-7a83a3ad4310}, !- Name
  {ef15684b-ce6a-4ac4-9e15-ee17e9d5d9c3}, !- Source Object
  11,                                     !- Outlet Port
  {b1845d6f-4334-429e-9a30-3ff0dbf2267b}, !- Target Object
  2;                                      !- Inlet Port

OS:PortList,
  {787edeb6-3ada-4320-8903-6215221d4e9e}, !- Handle
  {9cddc416-d38d-419d-a0fb-848e6eff0473}, !- Name
  {ef15684b-ce6a-4ac4-9e15-ee17e9d5d9c3}; !- HVAC Component

OS:PortList,
  {c9a79b1a-526f-4e7b-80a1-e0d3dc510cd5}, !- Handle
  {51626666-ee45-466a-978c-2a654106f07a}, !- Name
  {ef15684b-ce6a-4ac4-9e15-ee17e9d5d9c3}; !- HVAC Component

OS:Sizing:Zone,
  {65b7955d-d689-49a4-89bc-41d4f40565ab}, !- Handle
  {ef15684b-ce6a-4ac4-9e15-ee17e9d5d9c3}, !- Zone or ZoneList Name
  SupplyAirTemperature,                   !- Zone Cooling Design Supply Air Temperature Input Method
  14,                                     !- Zone Cooling Design Supply Air Temperature {C}
  11.11,                                  !- Zone Cooling Design Supply Air Temperature Difference {deltaC}
  SupplyAirTemperature,                   !- Zone Heating Design Supply Air Temperature Input Method
  40,                                     !- Zone Heating Design Supply Air Temperature {C}
  11.11,                                  !- Zone Heating Design Supply Air Temperature Difference {deltaC}
  0.0085,                                 !- Zone Cooling Design Supply Air Humidity Ratio {kg-H2O/kg-air}
  0.008,                                  !- Zone Heating Design Supply Air Humidity Ratio {kg-H2O/kg-air}
  ,                                       !- Zone Heating Sizing Factor
  ,                                       !- Zone Cooling Sizing Factor
  DesignDay,                              !- Cooling Design Air Flow Method
  ,                                       !- Cooling Design Air Flow Rate {m3/s}
  ,                                       !- Cooling Minimum Air Flow per Zone Floor Area {m3/s-m2}
  ,                                       !- Cooling Minimum Air Flow {m3/s}
  ,                                       !- Cooling Minimum Air Flow Fraction
  DesignDay,                              !- Heating Design Air Flow Method
  ,                                       !- Heating Design Air Flow Rate {m3/s}
  ,                                       !- Heating Maximum Air Flow per Zone Floor Area {m3/s-m2}
  ,                                       !- Heating Maximum Air Flow {m3/s}
  ,                                       !- Heating Maximum Air Flow Fraction
  ,                                       !- Design Zone Air Distribution Effectiveness in Cooling Mode
  ,                                       !- Design Zone Air Distribution Effectiveness in Heating Mode
  No,                                     !- Account for Dedicated Outdoor Air System
  NeutralSupplyAir,                       !- Dedicated Outdoor Air System Control Strategy
  autosize,                               !- Dedicated Outdoor Air Low Setpoint Temperature for Design {C}
  autosize;                               !- Dedicated Outdoor Air High Setpoint Temperature for Design {C}

OS:ZoneHVAC:EquipmentList,
  {b680b153-cfe8-4e71-ba82-5b91fea10bb4}, !- Handle
  Zone HVAC Equipment List 1,             !- Name
  {ef15684b-ce6a-4ac4-9e15-ee17e9d5d9c3}; !- Thermal Zone

OS:Space,
  {8eb0ed5b-314d-4070-9619-37e0f78a0d23}, !- Handle
  living space,                           !- Name
  {2b7bba4c-ceff-45d3-9b3c-c1f111926beb}, !- Space Type Name
  ,                                       !- Default Construction Set Name
  ,                                       !- Default Schedule Set Name
  ,                                       !- Direction of Relative North {deg}
  ,                                       !- X Origin {m}
  ,                                       !- Y Origin {m}
  ,                                       !- Z Origin {m}
  ,                                       !- Building Story Name
  {ef15684b-ce6a-4ac4-9e15-ee17e9d5d9c3}, !- Thermal Zone Name
  ,                                       !- Part of Total Floor Area
  ,                                       !- Design Specification Outdoor Air Object Name
  {d833b8ec-9c57-4cce-bac4-5684347f424d}; !- Building Unit Name

OS:Surface,
  {41d254ae-de74-4476-b661-338d6a9daa7a}, !- Handle
  Surface 1,                              !- Name
  Floor,                                  !- Surface Type
  ,                                       !- Construction Name
  {8eb0ed5b-314d-4070-9619-37e0f78a0d23}, !- Space Name
  Foundation,                             !- Outside Boundary Condition
  ,                                       !- Outside Boundary Condition Object
  NoSun,                                  !- Sun Exposure
  NoWind,                                 !- Wind Exposure
  ,                                       !- View Factor to Ground
  ,                                       !- Number of Vertices
  0, -12.9315688143396, 0,                !- X,Y,Z Vertex 1 {m}
  0, 0, 0,                                !- X,Y,Z Vertex 2 {m}
  6.46578440716979, 0, 0,                 !- X,Y,Z Vertex 3 {m}
  6.46578440716979, -12.9315688143396, 0; !- X,Y,Z Vertex 4 {m}

OS:Surface,
  {913fde65-b6b6-4f1c-87e8-61b93db11915}, !- Handle
  Surface 2,                              !- Name
  Wall,                                   !- Surface Type
  ,                                       !- Construction Name
  {8eb0ed5b-314d-4070-9619-37e0f78a0d23}, !- Space Name
  Outdoors,                               !- Outside Boundary Condition
  ,                                       !- Outside Boundary Condition Object
  SunExposed,                             !- Sun Exposure
  WindExposed,                            !- Wind Exposure
  ,                                       !- View Factor to Ground
  ,                                       !- Number of Vertices
  0, 0, 2.4384,                           !- X,Y,Z Vertex 1 {m}
  0, 0, 0,                                !- X,Y,Z Vertex 2 {m}
  0, -12.9315688143396, 0,                !- X,Y,Z Vertex 3 {m}
  0, -12.9315688143396, 2.4384;           !- X,Y,Z Vertex 4 {m}

OS:Surface,
  {932151cc-a800-4a18-9553-dd7b765584c2}, !- Handle
  Surface 3,                              !- Name
  Wall,                                   !- Surface Type
  ,                                       !- Construction Name
  {8eb0ed5b-314d-4070-9619-37e0f78a0d23}, !- Space Name
  Outdoors,                               !- Outside Boundary Condition
  ,                                       !- Outside Boundary Condition Object
  SunExposed,                             !- Sun Exposure
  WindExposed,                            !- Wind Exposure
  ,                                       !- View Factor to Ground
  ,                                       !- Number of Vertices
  6.46578440716979, 0, 2.4384,            !- X,Y,Z Vertex 1 {m}
  6.46578440716979, 0, 0,                 !- X,Y,Z Vertex 2 {m}
  0, 0, 0,                                !- X,Y,Z Vertex 3 {m}
  0, 0, 2.4384;                           !- X,Y,Z Vertex 4 {m}

OS:Surface,
  {89431b26-9371-404d-be78-2ddd7b9f4007}, !- Handle
  Surface 4,                              !- Name
  Wall,                                   !- Surface Type
  ,                                       !- Construction Name
  {8eb0ed5b-314d-4070-9619-37e0f78a0d23}, !- Space Name
  Surface,                                !- Outside Boundary Condition
  {dd157184-9044-4ef2-9069-7336d5a35fa9}, !- Outside Boundary Condition Object
  NoSun,                                  !- Sun Exposure
  NoWind,                                 !- Wind Exposure
  ,                                       !- View Factor to Ground
  ,                                       !- Number of Vertices
  6.46578440716979, -12.9315688143396, 2.4384, !- X,Y,Z Vertex 1 {m}
  6.46578440716979, -12.9315688143396, 0, !- X,Y,Z Vertex 2 {m}
  6.46578440716979, 0, 0,                 !- X,Y,Z Vertex 3 {m}
  6.46578440716979, 0, 2.4384;            !- X,Y,Z Vertex 4 {m}

OS:Surface,
  {a66ebc06-f07d-4c95-ae79-2e6294bcf856}, !- Handle
  Surface 5,                              !- Name
  Wall,                                   !- Surface Type
  ,                                       !- Construction Name
  {8eb0ed5b-314d-4070-9619-37e0f78a0d23}, !- Space Name
  Outdoors,                               !- Outside Boundary Condition
  ,                                       !- Outside Boundary Condition Object
  SunExposed,                             !- Sun Exposure
  WindExposed,                            !- Wind Exposure
  ,                                       !- View Factor to Ground
  ,                                       !- Number of Vertices
  0, -12.9315688143396, 2.4384,           !- X,Y,Z Vertex 1 {m}
  0, -12.9315688143396, 0,                !- X,Y,Z Vertex 2 {m}
  6.46578440716979, -12.9315688143396, 0, !- X,Y,Z Vertex 3 {m}
  6.46578440716979, -12.9315688143396, 2.4384; !- X,Y,Z Vertex 4 {m}

OS:Surface,
  {859415c3-110c-49fa-86f6-2ab20a263c42}, !- Handle
  Surface 6,                              !- Name
  RoofCeiling,                            !- Surface Type
  ,                                       !- Construction Name
  {8eb0ed5b-314d-4070-9619-37e0f78a0d23}, !- Space Name
  Outdoors,                               !- Outside Boundary Condition
  ,                                       !- Outside Boundary Condition Object
  SunExposed,                             !- Sun Exposure
  WindExposed,                            !- Wind Exposure
  ,                                       !- View Factor to Ground
  ,                                       !- Number of Vertices
  6.46578440716979, -12.9315688143396, 2.4384, !- X,Y,Z Vertex 1 {m}
  6.46578440716979, 0, 2.4384,            !- X,Y,Z Vertex 2 {m}
  0, 0, 2.4384,                           !- X,Y,Z Vertex 3 {m}
  0, -12.9315688143396, 2.4384;           !- X,Y,Z Vertex 4 {m}

OS:SpaceType,
  {2b7bba4c-ceff-45d3-9b3c-c1f111926beb}, !- Handle
  Space Type 1,                           !- Name
  ,                                       !- Default Construction Set Name
  ,                                       !- Default Schedule Set Name
  ,                                       !- Group Rendering Name
  ,                                       !- Design Specification Outdoor Air Object Name
  ,                                       !- Standards Building Type
  living;                                 !- Standards Space Type

OS:ThermalZone,
  {5c494cc7-88be-45e6-b03a-d86471019b88}, !- Handle
  living zone|unit 2,                     !- Name
  ,                                       !- Multiplier
  ,                                       !- Ceiling Height {m}
  ,                                       !- Volume {m3}
  ,                                       !- Floor Area {m2}
  ,                                       !- Zone Inside Convection Algorithm
  ,                                       !- Zone Outside Convection Algorithm
  ,                                       !- Zone Conditioning Equipment List Name
  {91c0be9e-e8fa-42f4-ad73-1b7921f6ce4e}, !- Zone Air Inlet Port List
  {15241467-aa62-47b4-a014-820608fe43a4}, !- Zone Air Exhaust Port List
  {6d1a1929-c656-4fc0-8f0f-a1d0a01e9eb8}, !- Zone Air Node Name
  ,                                       !- Zone Return Air Node Name
  ,                                       !- Primary Daylighting Control Name
  ,                                       !- Fraction of Zone Controlled by Primary Daylighting Control
  ,                                       !- Secondary Daylighting Control Name
  ,                                       !- Fraction of Zone Controlled by Secondary Daylighting Control
  ,                                       !- Illuminance Map Name
  ,                                       !- Group Rendering Name
  ,                                       !- Thermostat Name
  No;                                     !- Use Ideal Air Loads

OS:Node,
  {a83eaf92-f716-439e-b915-64d06c030c56}, !- Handle
  Node 2,                                 !- Name
  {6d1a1929-c656-4fc0-8f0f-a1d0a01e9eb8}, !- Inlet Port
  ;                                       !- Outlet Port

OS:Connection,
  {6d1a1929-c656-4fc0-8f0f-a1d0a01e9eb8}, !- Handle
  {8523a5e0-ffcc-44c6-8bde-a858fcc97c80}, !- Name
  {5c494cc7-88be-45e6-b03a-d86471019b88}, !- Source Object
  11,                                     !- Outlet Port
  {a83eaf92-f716-439e-b915-64d06c030c56}, !- Target Object
  2;                                      !- Inlet Port

OS:PortList,
  {91c0be9e-e8fa-42f4-ad73-1b7921f6ce4e}, !- Handle
  {cee48826-d1e0-4dca-bb47-cfc5f34288b9}, !- Name
  {5c494cc7-88be-45e6-b03a-d86471019b88}; !- HVAC Component

OS:PortList,
  {15241467-aa62-47b4-a014-820608fe43a4}, !- Handle
  {bf4b3410-ba7a-43a9-8184-6e6ecd754b4b}, !- Name
  {5c494cc7-88be-45e6-b03a-d86471019b88}; !- HVAC Component

OS:Sizing:Zone,
  {00fbb7ca-0429-4e89-9a0e-52baa06d629a}, !- Handle
  {5c494cc7-88be-45e6-b03a-d86471019b88}, !- Zone or ZoneList Name
  SupplyAirTemperature,                   !- Zone Cooling Design Supply Air Temperature Input Method
  14,                                     !- Zone Cooling Design Supply Air Temperature {C}
  11.11,                                  !- Zone Cooling Design Supply Air Temperature Difference {deltaC}
  SupplyAirTemperature,                   !- Zone Heating Design Supply Air Temperature Input Method
  40,                                     !- Zone Heating Design Supply Air Temperature {C}
  11.11,                                  !- Zone Heating Design Supply Air Temperature Difference {deltaC}
  0.0085,                                 !- Zone Cooling Design Supply Air Humidity Ratio {kg-H2O/kg-air}
  0.008,                                  !- Zone Heating Design Supply Air Humidity Ratio {kg-H2O/kg-air}
  ,                                       !- Zone Heating Sizing Factor
  ,                                       !- Zone Cooling Sizing Factor
  DesignDay,                              !- Cooling Design Air Flow Method
  ,                                       !- Cooling Design Air Flow Rate {m3/s}
  ,                                       !- Cooling Minimum Air Flow per Zone Floor Area {m3/s-m2}
  ,                                       !- Cooling Minimum Air Flow {m3/s}
  ,                                       !- Cooling Minimum Air Flow Fraction
  DesignDay,                              !- Heating Design Air Flow Method
  ,                                       !- Heating Design Air Flow Rate {m3/s}
  ,                                       !- Heating Maximum Air Flow per Zone Floor Area {m3/s-m2}
  ,                                       !- Heating Maximum Air Flow {m3/s}
  ,                                       !- Heating Maximum Air Flow Fraction
  ,                                       !- Design Zone Air Distribution Effectiveness in Cooling Mode
  ,                                       !- Design Zone Air Distribution Effectiveness in Heating Mode
  No,                                     !- Account for Dedicated Outdoor Air System
  NeutralSupplyAir,                       !- Dedicated Outdoor Air System Control Strategy
  autosize,                               !- Dedicated Outdoor Air Low Setpoint Temperature for Design {C}
  autosize;                               !- Dedicated Outdoor Air High Setpoint Temperature for Design {C}

OS:ZoneHVAC:EquipmentList,
  {4d674887-ec3d-4120-b7aa-6c6f24c3a1fb}, !- Handle
  Zone HVAC Equipment List 2,             !- Name
  {5c494cc7-88be-45e6-b03a-d86471019b88}; !- Thermal Zone

OS:Space,
  {cc236f58-a439-40c8-bafc-2e17a4080970}, !- Handle
  living space|unit 2|story 1,            !- Name
  {2b7bba4c-ceff-45d3-9b3c-c1f111926beb}, !- Space Type Name
  ,                                       !- Default Construction Set Name
  ,                                       !- Default Schedule Set Name
  -0,                                     !- Direction of Relative North {deg}
  0,                                      !- X Origin {m}
  0,                                      !- Y Origin {m}
  0,                                      !- Z Origin {m}
  ,                                       !- Building Story Name
  {5c494cc7-88be-45e6-b03a-d86471019b88}, !- Thermal Zone Name
  ,                                       !- Part of Total Floor Area
  ,                                       !- Design Specification Outdoor Air Object Name
  {03184db9-d843-499e-81f9-57ce1c6b3886}; !- Building Unit Name

OS:Surface,
  {4287e67b-517b-4e42-93c9-7c19c60ffc98}, !- Handle
  Surface 7,                              !- Name
  RoofCeiling,                            !- Surface Type
  ,                                       !- Construction Name
  {cc236f58-a439-40c8-bafc-2e17a4080970}, !- Space Name
  Outdoors,                               !- Outside Boundary Condition
  ,                                       !- Outside Boundary Condition Object
  SunExposed,                             !- Sun Exposure
  WindExposed,                            !- Wind Exposure
  ,                                       !- View Factor to Ground
  ,                                       !- Number of Vertices
  12.9315688143396, -12.9315688143396, 2.4384, !- X,Y,Z Vertex 1 {m}
  12.9315688143396, 0, 2.4384,            !- X,Y,Z Vertex 2 {m}
  6.46578440716979, 0, 2.4384,            !- X,Y,Z Vertex 3 {m}
  6.46578440716979, -12.9315688143396, 2.4384; !- X,Y,Z Vertex 4 {m}

OS:Surface,
  {210ab7c2-fdf8-44e6-a75c-35ec0544e432}, !- Handle
  Surface 8,                              !- Name
  Wall,                                   !- Surface Type
  ,                                       !- Construction Name
  {cc236f58-a439-40c8-bafc-2e17a4080970}, !- Space Name
  Outdoors,                               !- Outside Boundary Condition
  ,                                       !- Outside Boundary Condition Object
  SunExposed,                             !- Sun Exposure
  WindExposed,                            !- Wind Exposure
  ,                                       !- View Factor to Ground
  ,                                       !- Number of Vertices
  12.9315688143396, 0, 2.4384,            !- X,Y,Z Vertex 1 {m}
  12.9315688143396, 0, 0,                 !- X,Y,Z Vertex 2 {m}
  6.46578440716979, 0, 0,                 !- X,Y,Z Vertex 3 {m}
  6.46578440716979, 0, 2.4384;            !- X,Y,Z Vertex 4 {m}

OS:Surface,
  {1d7b1112-87b7-40d6-b7f7-a5d0d0400a0f}, !- Handle
  Surface 9,                              !- Name
  Floor,                                  !- Surface Type
  ,                                       !- Construction Name
  {cc236f58-a439-40c8-bafc-2e17a4080970}, !- Space Name
  Foundation,                             !- Outside Boundary Condition
  ,                                       !- Outside Boundary Condition Object
  NoSun,                                  !- Sun Exposure
  NoWind,                                 !- Wind Exposure
  ,                                       !- View Factor to Ground
  ,                                       !- Number of Vertices
  6.46578440716979, -12.9315688143396, 0, !- X,Y,Z Vertex 1 {m}
  6.46578440716979, 0, 0,                 !- X,Y,Z Vertex 2 {m}
  12.9315688143396, 0, 0,                 !- X,Y,Z Vertex 3 {m}
  12.9315688143396, -12.9315688143396, 0; !- X,Y,Z Vertex 4 {m}

OS:Surface,
  {6a13eb9b-04b5-4538-a39a-5a0940851092}, !- Handle
  Surface 10,                             !- Name
  Wall,                                   !- Surface Type
  ,                                       !- Construction Name
  {cc236f58-a439-40c8-bafc-2e17a4080970}, !- Space Name
  Surface,                                !- Outside Boundary Condition
  {e83ed05e-32ca-4b4c-b404-172494b35c2f}, !- Outside Boundary Condition Object
  NoSun,                                  !- Sun Exposure
  NoWind,                                 !- Wind Exposure
  ,                                       !- View Factor to Ground
  ,                                       !- Number of Vertices
  12.9315688143396, -12.9315688143396, 2.4384, !- X,Y,Z Vertex 1 {m}
  12.9315688143396, -12.9315688143396, 0, !- X,Y,Z Vertex 2 {m}
  12.9315688143396, 0, 0,                 !- X,Y,Z Vertex 3 {m}
  12.9315688143396, 0, 2.4384;            !- X,Y,Z Vertex 4 {m}

OS:Surface,
  {dd157184-9044-4ef2-9069-7336d5a35fa9}, !- Handle
  Surface 11,                             !- Name
  Wall,                                   !- Surface Type
  ,                                       !- Construction Name
  {cc236f58-a439-40c8-bafc-2e17a4080970}, !- Space Name
  Surface,                                !- Outside Boundary Condition
  {89431b26-9371-404d-be78-2ddd7b9f4007}, !- Outside Boundary Condition Object
  NoSun,                                  !- Sun Exposure
  NoWind,                                 !- Wind Exposure
  ,                                       !- View Factor to Ground
  ,                                       !- Number of Vertices
  6.46578440716979, 0, 2.4384,            !- X,Y,Z Vertex 1 {m}
  6.46578440716979, 0, 0,                 !- X,Y,Z Vertex 2 {m}
  6.46578440716979, -12.9315688143396, 0, !- X,Y,Z Vertex 3 {m}
  6.46578440716979, -12.9315688143396, 2.4384; !- X,Y,Z Vertex 4 {m}

OS:Surface,
  {b6a7ea31-0063-43ad-ac99-ad015a3f5dd8}, !- Handle
  Surface 12,                             !- Name
  Wall,                                   !- Surface Type
  ,                                       !- Construction Name
  {cc236f58-a439-40c8-bafc-2e17a4080970}, !- Space Name
  Outdoors,                               !- Outside Boundary Condition
  ,                                       !- Outside Boundary Condition Object
  SunExposed,                             !- Sun Exposure
  WindExposed,                            !- Wind Exposure
  ,                                       !- View Factor to Ground
  ,                                       !- Number of Vertices
  6.46578440716979, -12.9315688143396, 2.4384, !- X,Y,Z Vertex 1 {m}
  6.46578440716979, -12.9315688143396, 0, !- X,Y,Z Vertex 2 {m}
  12.9315688143396, -12.9315688143396, 0, !- X,Y,Z Vertex 3 {m}
  12.9315688143396, -12.9315688143396, 2.4384; !- X,Y,Z Vertex 4 {m}

OS:ThermalZone,
  {d61e2fe2-fe2d-450c-8e0d-9bd3df772513}, !- Handle
  living zone|unit 3,                     !- Name
  ,                                       !- Multiplier
  ,                                       !- Ceiling Height {m}
  ,                                       !- Volume {m3}
  ,                                       !- Floor Area {m2}
  ,                                       !- Zone Inside Convection Algorithm
  ,                                       !- Zone Outside Convection Algorithm
  ,                                       !- Zone Conditioning Equipment List Name
  {de1ff393-8668-4a35-93c3-40f62e93fdbf}, !- Zone Air Inlet Port List
  {9f0a5271-370e-416b-96a8-3628ce55fb85}, !- Zone Air Exhaust Port List
  {9f652bfe-1596-43e1-bf64-c58538cbd1a7}, !- Zone Air Node Name
  ,                                       !- Zone Return Air Node Name
  ,                                       !- Primary Daylighting Control Name
  ,                                       !- Fraction of Zone Controlled by Primary Daylighting Control
  ,                                       !- Secondary Daylighting Control Name
  ,                                       !- Fraction of Zone Controlled by Secondary Daylighting Control
  ,                                       !- Illuminance Map Name
  ,                                       !- Group Rendering Name
  ,                                       !- Thermostat Name
  No;                                     !- Use Ideal Air Loads

OS:Node,
  {314a805b-1921-40b4-ba3f-d9e3e5948b3c}, !- Handle
  Node 3,                                 !- Name
  {9f652bfe-1596-43e1-bf64-c58538cbd1a7}, !- Inlet Port
  ;                                       !- Outlet Port

OS:Connection,
  {9f652bfe-1596-43e1-bf64-c58538cbd1a7}, !- Handle
  {495b3f4f-0fe5-4a43-936e-b960da418f8a}, !- Name
  {d61e2fe2-fe2d-450c-8e0d-9bd3df772513}, !- Source Object