!- NOTE: Auto-generated from /test/osw_files/SFD_2000sqft_2story_FB_GRG_UA_Southwest.osw

OS:Version,
  {d336f5c4-16a1-49bb-bd65-21e76f5938ff}, !- Handle
  2.6.0;                                  !- Version Identifier

OS:Building,
  {98abe581-e1c0-4c1e-870f-cf635852a7c3}, !- Handle
  Building 1,                             !- Name
  ,                                       !- Building Sector Type
  45,                                     !- North Axis {deg}
  ,                                       !- Nominal Floor to Floor Height {m}
  ,                                       !- Space Type Name
  ,                                       !- Default Construction Set Name
  ,                                       !- Default Schedule Set Name
  3,                                      !- Standards Number of Stories
  2,                                      !- Standards Number of Above Ground Stories
  singlefamilydetached,                   !- Standards Building Type
  1;                                      !- Standards Number of Living Units

OS:Facility,
  {002d5f73-28c1-465b-acc2-a9b375544238}; !- Handle

OS:Site,
  {4b725027-5604-4a0d-a580-f5821dfddc94}, !- Handle
  Site 1,                                 !- Name
  ,                                       !- Latitude {deg}
  ,                                       !- Longitude {deg}
  ,                                       !- Time Zone {hr}
  ,                                       !- Elevation {m}
  ;                                       !- Terrain

OS:SimulationControl,
  {adf049b3-4420-48be-9eaf-6153f2393262}; !- Handle

OS:Sizing:Parameters,
  {16b35036-8ecf-4f55-a593-378e8e106f7d}, !- Handle
  1.25,                                   !- Heating Sizing Factor
  1.15;                                   !- Cooling Sizing Factor

OS:Timestep,
  {a01bfc53-77d2-42e3-b04a-e007cfac68ec}, !- Handle
  6;                                      !- Number of Timesteps per Hour

OS:ShadowCalculation,
  {f80f826f-39fc-4608-b434-31a0bd5e7564}, !- Handle
  20,                                     !- Calculation Frequency
  15000;                                  !- Maximum Figures in Shadow Overlap Calculations

OS:HeatBalanceAlgorithm,
  {f8b88fa5-a5d1-4185-a7a5-e3f6a489caac}, !- Handle
  ConductionTransferFunction,             !- Algorithm
  200;                                    !- Surface Temperature Upper Limit {C}

OS:RunPeriod,
  {f1e6a6a9-0ede-4e86-b9d6-21e4d48d1e34}, !- Handle
  Run Period 1,                           !- Name
  1,                                      !- Begin Month
  1,                                      !- Begin Day of Month
  12,                                     !- End Month
  31,                                     !- End Day of Month
  ,                                       !- Use Weather File Holidays and Special Days
  ,                                       !- Use Weather File Daylight Saving Period
  ,                                       !- Apply Weekend Holiday Rule
  ,                                       !- Use Weather File Rain Indicators
  ,                                       !- Use Weather File Snow Indicators
  ;                                       !- Number of Times Runperiod to be Repeated

OS:LifeCycleCost:Parameters,
  {24fd9513-c3bf-494f-8f73-49028ea86693}, !- Handle
  ,                                       !- Analysis Type
  ,                                       !- Discounting Convention
  ,                                       !- Inflation Approach
  ,                                       !- Real Discount Rate
  ,                                       !- Nominal Discount Rate
  ,                                       !- Inflation
  ,                                       !- Base Date Month
  ,                                       !- Base Date Year
  ,                                       !- Service Date Month
  ,                                       !- Service Date Year
  ;                                       !- Length of Study Period in Years

OS:ThermalZone,
  {2729d6a5-735d-499c-b908-1ceb40f1fe2a}, !- Handle
  living zone,                            !- Name
  ,                                       !- Multiplier
  ,                                       !- Ceiling Height {m}
  ,                                       !- Volume {m3}
  ,                                       !- Floor Area {m2}
  ,                                       !- Zone Inside Convection Algorithm
  ,                                       !- Zone Outside Convection Algorithm
  ,                                       !- Zone Conditioning Equipment List Name
  {f073e9ae-39b2-4c0b-aa77-46e889bae8c1}, !- Zone Air Inlet Port List
  {a1111a6a-6f67-40e9-b233-a920231465ed}, !- Zone Air Exhaust Port List
  {e3775d25-fe73-4d6c-b1a7-096611d9a999}, !- Zone Air Node Name
  {add57a61-89a6-47d6-8ca4-30ea7ebecef6}, !- Zone Return Air Port List
  ,                                       !- Primary Daylighting Control Name
  ,                                       !- Fraction of Zone Controlled by Primary Daylighting Control
  ,                                       !- Secondary Daylighting Control Name
  ,                                       !- Fraction of Zone Controlled by Secondary Daylighting Control
  ,                                       !- Illuminance Map Name
  ,                                       !- Group Rendering Name
  ,                                       !- Thermostat Name
  No;                                     !- Use Ideal Air Loads

OS:Node,
  {77721f97-1e6f-43cc-96fa-8d0e11ce9010}, !- Handle
  Node 1,                                 !- Name
  {e3775d25-fe73-4d6c-b1a7-096611d9a999}, !- Inlet Port
  ;                                       !- Outlet Port

OS:Connection,
  {e3775d25-fe73-4d6c-b1a7-096611d9a999}, !- Handle
  {fd6b4bf9-e17c-4ddf-a59c-c1809c5059ee}, !- Name
  {2729d6a5-735d-499c-b908-1ceb40f1fe2a}, !- Source Object
  11,                                     !- Outlet Port
  {77721f97-1e6f-43cc-96fa-8d0e11ce9010}, !- Target Object
  2;                                      !- Inlet Port

OS:PortList,
  {f073e9ae-39b2-4c0b-aa77-46e889bae8c1}, !- Handle
  {c2634874-f016-4d24-a717-c3384b185c7f}, !- Name
  {2729d6a5-735d-499c-b908-1ceb40f1fe2a}; !- HVAC Component

OS:PortList,
  {a1111a6a-6f67-40e9-b233-a920231465ed}, !- Handle
  {b4591969-c9c0-4ff2-8771-61cbc2de23ac}, !- Name
  {2729d6a5-735d-499c-b908-1ceb40f1fe2a}; !- HVAC Component

OS:PortList,
  {add57a61-89a6-47d6-8ca4-30ea7ebecef6}, !- Handle
  {31765e84-ae81-4efd-9cdb-664581b28544}, !- Name
  {2729d6a5-735d-499c-b908-1ceb40f1fe2a}; !- HVAC Component

OS:Sizing:Zone,
  {b62d897e-313b-458c-8049-46938fe21d1a}, !- Handle
  {2729d6a5-735d-499c-b908-1ceb40f1fe2a}, !- Zone or ZoneList Name
  SupplyAirTemperature,                   !- Zone Cooling Design Supply Air Temperature Input Method
  14,                                     !- Zone Cooling Design Supply Air Temperature {C}
  11.11,                                  !- Zone Cooling Design Supply Air Temperature Difference {deltaC}
  SupplyAirTemperature,                   !- Zone Heating Design Supply Air Temperature Input Method
  40,                                     !- Zone Heating Design Supply Air Temperature {C}
  11.11,                                  !- Zone Heating Design Supply Air Temperature Difference {deltaC}
  0.0085,                                 !- Zone Cooling Design Supply Air Humidity Ratio {kg-H2O/kg-air}
  0.008,                                  !- Zone Heating Design Supply Air Humidity Ratio {kg-H2O/kg-air}
  ,                                       !- Zone Heating Sizing Factor
  ,                                       !- Zone Cooling Sizing Factor
  DesignDay,                              !- Cooling Design Air Flow Method
  ,                                       !- Cooling Design Air Flow Rate {m3/s}
  ,                                       !- Cooling Minimum Air Flow per Zone Floor Area {m3/s-m2}
  ,                                       !- Cooling Minimum Air Flow {m3/s}
  ,                                       !- Cooling Minimum Air Flow Fraction
  DesignDay,                              !- Heating Design Air Flow Method
  ,                                       !- Heating Design Air Flow Rate {m3/s}
  ,                                       !- Heating Maximum Air Flow per Zone Floor Area {m3/s-m2}
  ,                                       !- Heating Maximum Air Flow {m3/s}
  ,                                       !- Heating Maximum Air Flow Fraction
  ,                                       !- Design Zone Air Distribution Effectiveness in Cooling Mode
  ,                                       !- Design Zone Air Distribution Effectiveness in Heating Mode
  No,                                     !- Account for Dedicated Outdoor Air System
  NeutralSupplyAir,                       !- Dedicated Outdoor Air System Control Strategy
  autosize,                               !- Dedicated Outdoor Air Low Setpoint Temperature for Design {C}
  autosize;                               !- Dedicated Outdoor Air High Setpoint Temperature for Design {C}

OS:ZoneHVAC:EquipmentList,
  {e6e73a10-26a7-49d8-b551-c25027f90a56}, !- Handle
  Zone HVAC Equipment List 1,             !- Name
  {2729d6a5-735d-499c-b908-1ceb40f1fe2a}; !- Thermal Zone

OS:ThermalZone,
  {b93008f9-df9f-4238-9147-07eb987fd994}, !- Handle
  garage zone,                            !- Name
  ,                                       !- Multiplier
  ,                                       !- Ceiling Height {m}
  ,                                       !- Volume {m3}
  ,                                       !- Floor Area {m2}
  ,                                       !- Zone Inside Convection Algorithm
  ,                                       !- Zone Outside Convection Algorithm
  ,                                       !- Zone Conditioning Equipment List Name
  {edc229ff-bf62-4d93-99bb-1bdf642fcdc4}, !- Zone Air Inlet Port List
  {dc02edb8-17ba-468f-b7a0-5548f4d76224}, !- Zone Air Exhaust Port List
  {d00a769b-1206-48f0-91e1-1aaf8e044983}, !- Zone Air Node Name
  {258c159f-3367-49ec-99cc-f959142e1154}, !- Zone Return Air Port List
  ,                                       !- Primary Daylighting Control Name
  ,                                       !- Fraction of Zone Controlled by Primary Daylighting Control
  ,                                       !- Secondary Daylighting Control Name
  ,                                       !- Fraction of Zone Controlled by Secondary Daylighting Control
  ,                                       !- Illuminance Map Name
  ,                                       !- Group Rendering Name
  ,                                       !- Thermostat Name
  No;                                     !- Use Ideal Air Loads

OS:Node,
  {3985d53e-a911-4e25-9d6d-6f2d8af6cd0b}, !- Handle
  Node 2,                                 !- Name
  {d00a769b-1206-48f0-91e1-1aaf8e044983}, !- Inlet Port
  ;                                       !- Outlet Port

OS:Connection,
  {d00a769b-1206-48f0-91e1-1aaf8e044983}, !- Handle
  {095999d8-54e9-433e-accc-6dc2302c923e}, !- Name
  {b93008f9-df9f-4238-9147-07eb987fd994}, !- Source Object
  11,                                     !- Outlet Port
  {3985d53e-a911-4e25-9d6d-6f2d8af6cd0b}, !- Target Object
  2;                                      !- Inlet Port

OS:PortList,
  {edc229ff-bf62-4d93-99bb-1bdf642fcdc4}, !- Handle
  {4d8e4b37-3c23-421c-a41a-19ae88adfa2c}, !- Name
  {b93008f9-df9f-4238-9147-07eb987fd994}; !- HVAC Component

OS:PortList,
  {dc02edb8-17ba-468f-b7a0-5548f4d76224}, !- Handle
  {92c216c7-dfe7-42ba-af7c-68c6d03f6a91}, !- Name
  {b93008f9-df9f-4238-9147-07eb987fd994}; !- HVAC Component

OS:PortList,
  {258c159f-3367-49ec-99cc-f959142e1154}, !- Handle
  {b3d34a4a-27f9-4fb9-915c-8ddfe7e8390d}, !- Name
  {b93008f9-df9f-4238-9147-07eb987fd994}; !- HVAC Component

OS:Sizing:Zone,
  {0a60d401-886c-4ce6-9ca8-60e8901060f1}, !- Handle
  {b93008f9-df9f-4238-9147-07eb987fd994}, !- Zone or ZoneList Name
  SupplyAirTemperature,                   !- Zone Cooling Design Supply Air Temperature Input Method
  14,                                     !- Zone Cooling Design Supply Air Temperature {C}
  11.11,                                  !- Zone Cooling Design Supply Air Temperature Difference {deltaC}
  SupplyAirTemperature,                   !- Zone Heating Design Supply Air Temperature Input Method
  40,                                     !- Zone Heating Design Supply Air Temperature {C}
  11.11,                                  !- Zone Heating Design Supply Air Temperature Difference {deltaC}
  0.0085,                                 !- Zone Cooling Design Supply Air Humidity Ratio {kg-H2O/kg-air}
  0.008,                                  !- Zone Heating Design Supply Air Humidity Ratio {kg-H2O/kg-air}
  ,                                       !- Zone Heating Sizing Factor
  ,                                       !- Zone Cooling Sizing Factor
  DesignDay,                              !- Cooling Design Air Flow Method
  ,                                       !- Cooling Design Air Flow Rate {m3/s}
  ,                                       !- Cooling Minimum Air Flow per Zone Floor Area {m3/s-m2}
  ,                                       !- Cooling Minimum Air Flow {m3/s}
  ,                                       !- Cooling Minimum Air Flow Fraction
  DesignDay,                              !- Heating Design Air Flow Method
  ,                                       !- Heating Design Air Flow Rate {m3/s}
  ,                                       !- Heating Maximum Air Flow per Zone Floor Area {m3/s-m2}
  ,                                       !- Heating Maximum Air Flow {m3/s}
  ,                                       !- Heating Maximum Air Flow Fraction
  ,                                       !- Design Zone Air Distribution Effectiveness in Cooling Mode
  ,                                       !- Design Zone Air Distribution Effectiveness in Heating Mode
  No,                                     !- Account for Dedicated Outdoor Air System
  NeutralSupplyAir,                       !- Dedicated Outdoor Air System Control Strategy
  autosize,                               !- Dedicated Outdoor Air Low Setpoint Temperature for Design {C}
  autosize;                               !- Dedicated Outdoor Air High Setpoint Temperature for Design {C}

OS:ZoneHVAC:EquipmentList,
  {696e681a-e906-43ea-91cb-e4b5bea63279}, !- Handle
  Zone HVAC Equipment List 2,             !- Name
  {b93008f9-df9f-4238-9147-07eb987fd994}; !- Thermal Zone

OS:Space,
  {f4cc4d2b-d9df-4ac9-9a13-32973ca8fbe1}, !- Handle
  garage space,                           !- Name
  {012c8014-3ffb-4a9a-827a-bf9e1f572cbc}, !- Space Type Name
  ,                                       !- Default Construction Set Name
  ,                                       !- Default Schedule Set Name
  -0,                                     !- Direction of Relative North {deg}
  0,                                      !- X Origin {m}
  0,                                      !- Y Origin {m}
  0,                                      !- Z Origin {m}
  ,                                       !- Building Story Name
  {b93008f9-df9f-4238-9147-07eb987fd994}; !- Thermal Zone Name

OS:Surface,
  {a22ee16c-adc5-49fe-8dfa-c12b0bc04947}, !- Handle
  Surface 1,                              !- Name
  Floor,                                  !- Surface Type
  ,                                       !- Construction Name
  {f4cc4d2b-d9df-4ac9-9a13-32973ca8fbe1}, !- Space Name
  Foundation,                             !- Outside Boundary Condition
  ,                                       !- Outside Boundary Condition Object
  NoSun,                                  !- Sun Exposure
  NoWind,                                 !- Wind Exposure
  ,                                       !- View Factor to Ground
  ,                                       !- Number of Vertices
  5.57695129776527, -3.048, 0,            !- X,Y,Z Vertex 1 {m}
  5.57695129776527, 3.048, 0,             !- X,Y,Z Vertex 2 {m}
  11.6729512977653, 3.048, 0,             !- X,Y,Z Vertex 3 {m}
  11.6729512977653, -3.048, 0;            !- X,Y,Z Vertex 4 {m}

OS:Surface,
  {28e2698d-3a08-4b15-adba-057c296bf688}, !- Handle
  Surface 2,                              !- Name
  Wall,                                   !- Surface Type
  ,                                       !- Construction Name
  {f4cc4d2b-d9df-4ac9-9a13-32973ca8fbe1}, !- Space Name
  Surface,                                !- Outside Boundary Condition
  {b20625e1-a827-4809-88df-f3869b469aa8}, !- Outside Boundary Condition Object
  NoSun,                                  !- Sun Exposure
  NoWind,                                 !- Wind Exposure
  ,                                       !- View Factor to Ground
  ,                                       !- Number of Vertices
  5.57695129776527, 3.048, 2.4384,        !- X,Y,Z Vertex 1 {m}
  5.57695129776527, 3.048, 0,             !- X,Y,Z Vertex 2 {m}
  5.57695129776527, 0, 0,                 !- X,Y,Z Vertex 3 {m}
  5.57695129776527, 0, 2.4384;            !- X,Y,Z Vertex 4 {m}

OS:Surface,
  {3f531ccc-2428-4c57-97d3-506abcd7d337}, !- Handle
  Surface 3,                              !- Name
  Wall,                                   !- Surface Type
  ,                                       !- Construction Name
  {f4cc4d2b-d9df-4ac9-9a13-32973ca8fbe1}, !- Space Name
  Surface,                                !- Outside Boundary Condition
  {e6468a32-07d1-4a6f-a4cc-8d6941390978}, !- Outside Boundary Condition Object
  NoSun,                                  !- Sun Exposure
  NoWind,                                 !- Wind Exposure
  ,                                       !- View Factor to Ground
  ,                                       !- Number of Vertices
  11.6729512977653, 3.048, 2.4384,        !- X,Y,Z Vertex 1 {m}
  11.6729512977653, 3.048, 0,             !- X,Y,Z Vertex 2 {m}
  5.57695129776527, 3.048, 0,             !- X,Y,Z Vertex 3 {m}
  5.57695129776527, 3.048, 2.4384;        !- X,Y,Z Vertex 4 {m}

OS:Surface,
  {95d6bf0c-9e77-4bf1-a680-6efd4d6859ff}, !- Handle
  Surface 4,                              !- Name
  Wall,                                   !- Surface Type
  ,                                       !- Construction Name
  {f4cc4d2b-d9df-4ac9-9a13-32973ca8fbe1}, !- Space Name
  Outdoors,                               !- Outside Boundary Condition
  ,                                       !- Outside Boundary Condition Object
  SunExposed,                             !- Sun Exposure
  WindExposed,                            !- Wind Exposure
  ,                                       !- View Factor to Ground
  ,                                       !- Number of Vertices
  11.6729512977653, -3.048, 2.4384,       !- X,Y,Z Vertex 1 {m}
  11.6729512977653, -3.048, 0,            !- X,Y,Z Vertex 2 {m}
  11.6729512977653, 3.048, 0,             !- X,Y,Z Vertex 3 {m}
  11.6729512977653, 3.048, 2.4384;        !- X,Y,Z Vertex 4 {m}

OS:Surface,
  {b9918ada-ed78-4e8a-a216-4fcf778904d1}, !- Handle
  Surface 5,                              !- Name
  Wall,                                   !- Surface Type
  ,                                       !- Construction Name
  {f4cc4d2b-d9df-4ac9-9a13-32973ca8fbe1}, !- Space Name
  Outdoors,                               !- Outside Boundary Condition
  ,                                       !- Outside Boundary Condition Object
  SunExposed,                             !- Sun Exposure
  WindExposed,                            !- Wind Exposure
  ,                                       !- View Factor to Ground
  ,                                       !- Number of Vertices
  5.57695129776527, -3.048, 2.4384,       !- X,Y,Z Vertex 1 {m}
  5.57695129776527, -3.048, 0,            !- X,Y,Z Vertex 2 {m}
  11.6729512977653, -3.048, 0,            !- X,Y,Z Vertex 3 {m}
  11.6729512977653, -3.048, 2.4384;       !- X,Y,Z Vertex 4 {m}

OS:Surface,
  {a9ee618e-e41c-4504-a356-a3aa05f4418f}, !- Handle
  Surface 6,                              !- Name
  RoofCeiling,                            !- Surface Type
  ,                                       !- Construction Name
  {f4cc4d2b-d9df-4ac9-9a13-32973ca8fbe1}, !- Space Name
  Surface,                                !- Outside Boundary Condition
  {c0164aac-144d-4006-9fe0-c73841159d0e}, !- Outside Boundary Condition Object
  NoSun,                                  !- Sun Exposure
  NoWind,                                 !- Wind Exposure
  ,                                       !- View Factor to Ground
  ,                                       !- Number of Vertices
  11.6729512977653, -3.048, 2.4384,       !- X,Y,Z Vertex 1 {m}
  11.6729512977653, 3.048, 2.4384,        !- X,Y,Z Vertex 2 {m}
  5.57695129776527, 3.048, 2.4384,        !- X,Y,Z Vertex 3 {m}
  5.57695129776527, -3.048, 2.4384;       !- X,Y,Z Vertex 4 {m}

OS:SpaceType,
  {012c8014-3ffb-4a9a-827a-bf9e1f572cbc}, !- Handle
  Space Type 1,                           !- Name
  ,                                       !- Default Construction Set Name
  ,                                       !- Default Schedule Set Name
  ,                                       !- Group Rendering Name
  ,                                       !- Design Specification Outdoor Air Object Name
  ,                                       !- Standards Building Type
  garage;                                 !- Standards Space Type

OS:Space,
  {8a16391b-6892-4001-83d8-08b24096dbbb}, !- Handle
  living space,                           !- Name
  {3f3ef855-a368-432a-8a63-1b81f6ce95b4}, !- Space Type Name
  ,                                       !- Default Construction Set Name
  ,                                       !- Default Schedule Set Name
  -0,                                     !- Direction of Relative North {deg}
  0,                                      !- X Origin {m}
  0,                                      !- Y Origin {m}
  0,                                      !- Z Origin {m}
  ,                                       !- Building Story Name
  {2729d6a5-735d-499c-b908-1ceb40f1fe2a}, !- Thermal Zone Name
  ,                                       !- Part of Total Floor Area
  ,                                       !- Design Specification Outdoor Air Object Name
  {43cda0c1-ef19-44ea-ae26-43c23b1052f7}; !- Building Unit Name

OS:Surface,
  {0297296c-2094-4fa5-8408-9ea9d3522567}, !- Handle
  Surface 7,                              !- Name
  Floor,                                  !- Surface Type
  ,                                       !- Construction Name
  {8a16391b-6892-4001-83d8-08b24096dbbb}, !- Space Name
  Surface,                                !- Outside Boundary Condition
  {c495b7b4-2785-4c72-8dc6-ee7f9941c5dc}, !- Outside Boundary Condition Object
  NoSun,                                  !- Sun Exposure
  NoWind,                                 !- Wind Exposure
  ,                                       !- View Factor to Ground
  ,                                       !- Number of Vertices
  0, 0, 0,                                !- X,Y,Z Vertex 1 {m}
  0, 5.83647564888264, 0,                 !- X,Y,Z Vertex 2 {m}
  11.6729512977653, 5.83647564888264, 0,  !- X,Y,Z Vertex 3 {m}
  11.6729512977653, 3.048, 0,             !- X,Y,Z Vertex 4 {m}
  5.57695129776527, 3.048, 0,             !- X,Y,Z Vertex 5 {m}
  5.57695129776527, 0, 0;                 !- X,Y,Z Vertex 6 {m}

OS:Surface,
  {29a9636e-2531-4c5d-ac63-4a3290e0b53a}, !- Handle
  Surface 8,                              !- Name
  Wall,                                   !- Surface Type
  ,                                       !- Construction Name
  {8a16391b-6892-4001-83d8-08b24096dbbb}, !- Space Name
  Outdoors,                               !- Outside Boundary Condition
  ,                                       !- Outside Boundary Condition Object
  SunExposed,                             !- Sun Exposure
  WindExposed,                            !- Wind Exposure
  ,                                       !- View Factor to Ground
  ,                                       !- Number of Vertices
  0, 5.83647564888264, 2.4384,            !- X,Y,Z Vertex 1 {m}
  0, 5.83647564888264, 0,                 !- X,Y,Z Vertex 2 {m}
  0, 0, 0,                                !- X,Y,Z Vertex 3 {m}
  0, 0, 2.4384;                           !- X,Y,Z Vertex 4 {m}

OS:Surface,
  {19960e7a-005b-4de0-9f70-9e73b58954af}, !- Handle
  Surface 9,                              !- Name
  Wall,                                   !- Surface Type
  ,                                       !- Construction Name
  {8a16391b-6892-4001-83d8-08b24096dbbb}, !- Space Name
  Outdoors,                               !- Outside Boundary Condition
  ,                                       !- Outside Boundary Condition Object
  SunExposed,                             !- Sun Exposure
  WindExposed,                            !- Wind Exposure
  ,                                       !- View Factor to Ground
  ,                                       !- Number of Vertices
  11.6729512977653, 5.83647564888264, 2.4384, !- X,Y,Z Vertex 1 {m}
  11.6729512977653, 5.83647564888264, 0,  !- X,Y,Z Vertex 2 {m}
  0, 5.83647564888264, 0,                 !- X,Y,Z Vertex 3 {m}
  0, 5.83647564888264, 2.4384;            !- X,Y,Z Vertex 4 {m}

OS:Surface,
  {9d367506-c3a0-4d4b-b932-9bb3660aef47}, !- Handle
  Surface 10,                             !- Name
  Wall,                                   !- Surface Type
  ,                                       !- Construction Name
  {8a16391b-6892-4001-83d8-08b24096dbbb}, !- Space Name
  Outdoors,                               !- Outside Boundary Condition
  ,                                       !- Outside Boundary Condition Object
  SunExposed,                             !- Sun Exposure
  WindExposed,                            !- Wind Exposure
  ,                                       !- View Factor to Ground
  ,                                       !- Number of Vertices
  11.6729512977653, 3.048, 2.4384,        !- X,Y,Z Vertex 1 {m}
  11.6729512977653, 3.048, 0,             !- X,Y,Z Vertex 2 {m}
  11.6729512977653, 5.83647564888264, 0,  !- X,Y,Z Vertex 3 {m}
  11.6729512977653, 5.83647564888264, 2.4384; !- X,Y,Z Vertex 4 {m}

OS:Surface,
  {e6468a32-07d1-4a6f-a4cc-8d6941390978}, !- Handle
  Surface 11,                             !- Name
  Wall,                                   !- Surface Type
  ,                                       !- Construction Name
  {8a16391b-6892-4001-83d8-08b24096dbbb}, !- Space Name
  Surface,                                !- Outside Boundary Condition
  {3f531ccc-2428-4c57-97d3-506abcd7d337}, !- Outside Boundary Condition Object
  NoSun,                                  !- Sun Exposure
  NoWind,                                 !- Wind Exposure
  ,                                       !- View Factor to Ground
  ,                                       !- Number of Vertices
  5.57695129776527, 3.048, 2.4384,        !- X,Y,Z Vertex 1 {m}
  5.57695129776527, 3.048, 0,             !- X,Y,Z Vertex 2 {m}
  11.6729512977653, 3.048, 0,             !- X,Y,Z Vertex 3 {m}
  11.6729512977653, 3.048, 2.4384;        !- X,Y,Z Vertex 4 {m}

OS:Surface,
  {b20625e1-a827-4809-88df-f3869b469aa8}, !- Handle
  Surface 12,                             !- Name
  Wall,                                   !- Surface Type
  ,                                       !- Construction Name
  {8a16391b-6892-4001-83d8-08b24096dbbb}, !- Space Name
  Surface,                                !- Outside Boundary Condition
  {28e2698d-3a08-4b15-adba-057c296bf688}, !- Outside Boundary Condition Object
  NoSun,                                  !- Sun Exposure
  NoWind,                                 !- Wind Exposure
  ,                                       !- View Factor to Ground
  ,                                       !- Number of Vertices
  5.57695129776527, 0, 2.4384,            !- X,Y,Z Vertex 1 {m}
  5.57695129776527, 0, 0,                 !- X,Y,Z Vertex 2 {m}
  5.57695129776527, 3.048, 0,             !- X,Y,Z Vertex 3 {m}
  5.57695129776527, 3.048, 2.4384;        !- X,Y,Z Vertex 4 {m}

OS:Surface,
  {58e8f807-25c3-4264-9d89-023c60193dd5}, !- Handle
  Surface 13,                             !- Name
  Wall,                                   !- Surface Type
  ,                                       !- Construction Name
  {8a16391b-6892-4001-83d8-08b24096dbbb}, !- Space Name
  Outdoors,                               !- Outside Boundary Condition
  ,                                       !- Outside Boundary Condition Object
  SunExposed,                             !- Sun Exposure
  WindExposed,                            !- Wind Exposure
  ,                                       !- View Factor to Ground
  ,                                       !- Number of Vertices
  0, 0, 2.4384,                           !- X,Y,Z Vertex 1 {m}
  0, 0, 0,                                !- X,Y,Z Vertex 2 {m}
  5.57695129776527, 0, 0,                 !- X,Y,Z Vertex 3 {m}
  5.57695129776527, 0, 2.4384;            !- X,Y,Z Vertex 4 {m}

OS:Surface,
  {f8227b9e-96d6-4afe-9aa9-1b6b82fa0ef7}, !- Handle
  Surface 14,                             !- Name
  RoofCeiling,                            !- Surface Type
  ,                                       !- Construction Name
  {8a16391b-6892-4001-83d8-08b24096dbbb}, !- Space Name
  Surface,                                !- Outside Boundary Condition
  {3fb0a1f6-a6ce-47bf-946d-222605583fe0}, !- Outside Boundary Condition Object
  NoSun,                                  !- Sun Exposure
  NoWind,                                 !- Wind Exposure
  ,                                       !- View Factor to Ground
  ,                                       !- Number of Vertices