!- NOTE: Auto-generated from /test/osw_files/SFD_2000sqft_2story_FB_GRG_UA.osw

OS:Version,
  {4539e8e4-88f3-4867-a5df-89e95f53457f}, !- Handle
  2.4.1;                                  !- Version Identifier

OS:Building,
  {bf305633-c5a1-4881-9edf-ca5e1a8e1274}, !- Handle
  Building,                               !- Name
  ,                                       !- Building Sector Type
  ,                                       !- North Axis {deg}
  ,                                       !- Nominal Floor to Floor Height {m}
  ,                                       !- Space Type Name
  ,                                       !- Default Construction Set Name
  ,                                       !- Default Schedule Set Name
  3,                                      !- Standards Number of Stories
  2,                                      !- Standards Number of Above Ground Stories
  singlefamilydetached,                   !- Standards Building Type
  1;                                      !- Standards Number of Living Units

OS:YearDescription,
  {513d8dda-86cb-442a-b01c-1f7f0e0ac70e}; !- Handle

OS:SimulationControl,
  {2c487a4c-bac9-4ac5-b669-1e49d9da7c2b}, !- Handle
  ,                                       !- Do Zone Sizing Calculation
  ,                                       !- Do System Sizing Calculation
  ,                                       !- Do Plant Sizing Calculation
  No,                                     !- Run Simulation for Sizing Periods
  ;                                       !- Run Simulation for Weather File Run Periods

OS:Timestep,
  {4ebc9f1e-4707-402e-9844-67eb1ffbd522}, !- Handle
  6;                                      !- Number of Timesteps per Hour

OS:RunPeriod,
  {28df894d-6af9-4fb8-8f56-df1753344aa3}, !- Handle
  Run Period,                             !- Name
  1,                                      !- Begin Month
  1,                                      !- Begin Day of Month
  12,                                     !- End Month
  31,                                     !- End Day of Month
  ,                                       !- Use Weather File Holidays and Special Days
  ,                                       !- Use Weather File Daylight Saving Period
  ,                                       !- Apply Weekend Holiday Rule
  ,                                       !- Use Weather File Rain Indicators
  ,                                       !- Use Weather File Snow Indicators
  ;                                       !- Number of Times Runperiod to be Repeated

OS:Sizing:Parameters,
  {dde5af6f-7923-4600-a28a-7556673a0266}, !- Handle
  1.0,                                    !- Heating Sizing Factor
  1.0;                                    !- Cooling Sizing Factor

OS:ShadowCalculation,
  {ca758bea-4416-4626-9bba-3d8795c79bd6}, !- Handle
  20,                                     !- Calculation Frequency
  200;                                    !- Maximum Figures in Shadow Overlap Calculations

OS:SurfaceConvectionAlgorithm:Inside,
  {aaabfc36-718a-4ab0-b622-f186ebb45230}, !- Handle
  TARP;                                   !- Algorithm

OS:SurfaceConvectionAlgorithm:Outside,
  {9a0a9f6f-4bbd-4b12-a121-9492a1fcd7d6}, !- Handle
  DOE-2;                                  !- Algorithm

OS:HeatBalanceAlgorithm,
  {9d93e563-e1e0-46d7-9e39-d1c8aceb7212}, !- Handle
  ConductionTransferFunction,             !- Algorithm
  200;                                    !- Surface Temperature Upper Limit {C}

OS:ZoneCapacitanceMultiplier:ResearchSpecial,
  {6bfced16-b16f-47f6-8223-f7e267d75d19}, !- Handle
  ,                                       !- Temperature Capacity Multiplier
  15,                                     !- Humidity Capacity Multiplier
  ;                                       !- Carbon Dioxide Capacity Multiplier

OS:ThermalZone,
  {1456ed78-5b35-409c-8b36-4b1c138a2296}, !- Handle
  living zone,                            !- Name
  ,                                       !- Multiplier
  ,                                       !- Ceiling Height {m}
  ,                                       !- Volume {m3}
  ,                                       !- Floor Area {m2}
  ,                                       !- Zone Inside Convection Algorithm
  ,                                       !- Zone Outside Convection Algorithm
  ,                                       !- Zone Conditioning Equipment List Name
  {81fa263a-7248-4aec-af40-4a569cd7e12e}, !- Zone Air Inlet Port List
  {a1f78605-c49e-48c5-9621-f7b9e2a281c1}, !- Zone Air Exhaust Port List
  {d1bffbb7-0901-414f-80af-0a41e4c47617}, !- Zone Air Node Name
  ,                                       !- Zone Return Air Node Name
  ,                                       !- Primary Daylighting Control Name
  ,                                       !- Fraction of Zone Controlled by Primary Daylighting Control
  ,                                       !- Secondary Daylighting Control Name
  ,                                       !- Fraction of Zone Controlled by Secondary Daylighting Control
  ,                                       !- Illuminance Map Name
  ,                                       !- Group Rendering Name
  ,                                       !- Thermostat Name
  No;                                     !- Use Ideal Air Loads

OS:Node,
  {0a105b55-4983-4039-8cdb-8a55c59457f1}, !- Handle
  Node 1,                                 !- Name
  {d1bffbb7-0901-414f-80af-0a41e4c47617}, !- Inlet Port
  ;                                       !- Outlet Port

OS:Connection,
  {d1bffbb7-0901-414f-80af-0a41e4c47617}, !- Handle
  {5d869f63-8ecf-4bf3-8843-05975d5b3d6e}, !- Name
  {1456ed78-5b35-409c-8b36-4b1c138a2296}, !- Source Object
  11,                                     !- Outlet Port
  {0a105b55-4983-4039-8cdb-8a55c59457f1}, !- Target Object
  2;                                      !- Inlet Port

OS:PortList,
  {81fa263a-7248-4aec-af40-4a569cd7e12e}, !- Handle
  {d8e248d6-8598-4694-830d-17ca035214bc}, !- Name
  {1456ed78-5b35-409c-8b36-4b1c138a2296}; !- HVAC Component

OS:PortList,
  {a1f78605-c49e-48c5-9621-f7b9e2a281c1}, !- Handle
  {8c4dc7b3-38a9-422f-9a5c-be65c6aa54b5}, !- Name
  {1456ed78-5b35-409c-8b36-4b1c138a2296}; !- HVAC Component

OS:Sizing:Zone,
  {8e3043b9-7e7b-4eb8-8cbd-7374b13c299b}, !- Handle
  {1456ed78-5b35-409c-8b36-4b1c138a2296}, !- Zone or ZoneList Name
  SupplyAirTemperature,                   !- Zone Cooling Design Supply Air Temperature Input Method
  14,                                     !- Zone Cooling Design Supply Air Temperature {C}
  11.11,                                  !- Zone Cooling Design Supply Air Temperature Difference {deltaC}
  SupplyAirTemperature,                   !- Zone Heating Design Supply Air Temperature Input Method
  40,                                     !- Zone Heating Design Supply Air Temperature {C}
  11.11,                                  !- Zone Heating Design Supply Air Temperature Difference {deltaC}
  0.0085,                                 !- Zone Cooling Design Supply Air Humidity Ratio {kg-H2O/kg-air}
  0.008,                                  !- Zone Heating Design Supply Air Humidity Ratio {kg-H2O/kg-air}
  ,                                       !- Zone Heating Sizing Factor
  ,                                       !- Zone Cooling Sizing Factor
  DesignDay,                              !- Cooling Design Air Flow Method
  ,                                       !- Cooling Design Air Flow Rate {m3/s}
  ,                                       !- Cooling Minimum Air Flow per Zone Floor Area {m3/s-m2}
  ,                                       !- Cooling Minimum Air Flow {m3/s}
  ,                                       !- Cooling Minimum Air Flow Fraction
  DesignDay,                              !- Heating Design Air Flow Method
  ,                                       !- Heating Design Air Flow Rate {m3/s}
  ,                                       !- Heating Maximum Air Flow per Zone Floor Area {m3/s-m2}
  ,                                       !- Heating Maximum Air Flow {m3/s}
  ,                                       !- Heating Maximum Air Flow Fraction
  ,                                       !- Design Zone Air Distribution Effectiveness in Cooling Mode
  ,                                       !- Design Zone Air Distribution Effectiveness in Heating Mode
  No,                                     !- Account for Dedicated Outdoor Air System
  NeutralSupplyAir,                       !- Dedicated Outdoor Air System Control Strategy
  autosize,                               !- Dedicated Outdoor Air Low Setpoint Temperature for Design {C}
  autosize;                               !- Dedicated Outdoor Air High Setpoint Temperature for Design {C}

OS:ZoneHVAC:EquipmentList,
  {bb2829b0-14b4-4c90-bf0d-c1b1fc612bab}, !- Handle
  Zone HVAC Equipment List 1,             !- Name
  {1456ed78-5b35-409c-8b36-4b1c138a2296}; !- Thermal Zone

OS:ThermalZone,
  {1f8019b3-6d7e-45b2-a602-f71dd3cb974a}, !- Handle
  garage zone,                            !- Name
  ,                                       !- Multiplier
  ,                                       !- Ceiling Height {m}
  ,                                       !- Volume {m3}
  ,                                       !- Floor Area {m2}
  ,                                       !- Zone Inside Convection Algorithm
  ,                                       !- Zone Outside Convection Algorithm
  ,                                       !- Zone Conditioning Equipment List Name
  {3483e868-7dad-4ef5-b05d-a88646e87557}, !- Zone Air Inlet Port List
  {9d681a8d-29b2-485b-8245-635f781e78e3}, !- Zone Air Exhaust Port List
  {ae5f4228-8193-42b0-95cc-cf1c5c2e63fc}, !- Zone Air Node Name
  ,                                       !- Zone Return Air Node Name
  ,                                       !- Primary Daylighting Control Name
  ,                                       !- Fraction of Zone Controlled by Primary Daylighting Control
  ,                                       !- Secondary Daylighting Control Name
  ,                                       !- Fraction of Zone Controlled by Secondary Daylighting Control
  ,                                       !- Illuminance Map Name
  ,                                       !- Group Rendering Name
  ,                                       !- Thermostat Name
  No;                                     !- Use Ideal Air Loads

OS:Node,
  {e2fe7562-8a9a-4629-aa94-f5934ae38842}, !- Handle
  Node 2,                                 !- Name
  {ae5f4228-8193-42b0-95cc-cf1c5c2e63fc}, !- Inlet Port
  ;                                       !- Outlet Port

OS:Connection,
  {ae5f4228-8193-42b0-95cc-cf1c5c2e63fc}, !- Handle
  {c3f76225-456c-46f9-8bd4-4d802ee7ec67}, !- Name
  {1f8019b3-6d7e-45b2-a602-f71dd3cb974a}, !- Source Object
  11,                                     !- Outlet Port
  {e2fe7562-8a9a-4629-aa94-f5934ae38842}, !- Target Object
  2;                                      !- Inlet Port

OS:PortList,
  {3483e868-7dad-4ef5-b05d-a88646e87557}, !- Handle
  {3cd62f79-d897-41c6-9dd6-bde12ddf7d55}, !- Name
  {1f8019b3-6d7e-45b2-a602-f71dd3cb974a}; !- HVAC Component

OS:PortList,
  {9d681a8d-29b2-485b-8245-635f781e78e3}, !- Handle
  {e3b821bc-e85f-4b5b-98c1-d1658a61053f}, !- Name
  {1f8019b3-6d7e-45b2-a602-f71dd3cb974a}; !- HVAC Component

OS:Sizing:Zone,
  {b52792b5-ccb8-4c3d-a050-7eddab3165cb}, !- Handle
  {1f8019b3-6d7e-45b2-a602-f71dd3cb974a}, !- Zone or ZoneList Name
  SupplyAirTemperature,                   !- Zone Cooling Design Supply Air Temperature Input Method
  14,                                     !- Zone Cooling Design Supply Air Temperature {C}
  11.11,                                  !- Zone Cooling Design Supply Air Temperature Difference {deltaC}
  SupplyAirTemperature,                   !- Zone Heating Design Supply Air Temperature Input Method
  40,                                     !- Zone Heating Design Supply Air Temperature {C}
  11.11,                                  !- Zone Heating Design Supply Air Temperature Difference {deltaC}
  0.0085,                                 !- Zone Cooling Design Supply Air Humidity Ratio {kg-H2O/kg-air}
  0.008,                                  !- Zone Heating Design Supply Air Humidity Ratio {kg-H2O/kg-air}
  ,                                       !- Zone Heating Sizing Factor
  ,                                       !- Zone Cooling Sizing Factor
  DesignDay,                              !- Cooling Design Air Flow Method
  ,                                       !- Cooling Design Air Flow Rate {m3/s}
  ,                                       !- Cooling Minimum Air Flow per Zone Floor Area {m3/s-m2}
  ,                                       !- Cooling Minimum Air Flow {m3/s}
  ,                                       !- Cooling Minimum Air Flow Fraction
  DesignDay,                              !- Heating Design Air Flow Method
  ,                                       !- Heating Design Air Flow Rate {m3/s}
  ,                                       !- Heating Maximum Air Flow per Zone Floor Area {m3/s-m2}
  ,                                       !- Heating Maximum Air Flow {m3/s}
  ,                                       !- Heating Maximum Air Flow Fraction
  ,                                       !- Design Zone Air Distribution Effectiveness in Cooling Mode
  ,                                       !- Design Zone Air Distribution Effectiveness in Heating Mode
  No,                                     !- Account for Dedicated Outdoor Air System
  NeutralSupplyAir,                       !- Dedicated Outdoor Air System Control Strategy
  autosize,                               !- Dedicated Outdoor Air Low Setpoint Temperature for Design {C}
  autosize;                               !- Dedicated Outdoor Air High Setpoint Temperature for Design {C}

OS:ZoneHVAC:EquipmentList,
  {2beea4d5-a044-416b-9c9a-ed3515db2a75}, !- Handle
  Zone HVAC Equipment List 2,             !- Name
  {1f8019b3-6d7e-45b2-a602-f71dd3cb974a}; !- Thermal Zone

OS:Space,
  {80fec489-ac7a-4eab-b1e1-cfe1dab23586}, !- Handle
  garage space,                           !- Name
  {4942c4e2-03d4-40cc-9554-3e8f621587f7}, !- Space Type Name
  ,                                       !- Default Construction Set Name
  ,                                       !- Default Schedule Set Name
  -0,                                     !- Direction of Relative North {deg}
  0,                                      !- X Origin {m}
  0,                                      !- Y Origin {m}
  0,                                      !- Z Origin {m}
  ,                                       !- Building Story Name
  {1f8019b3-6d7e-45b2-a602-f71dd3cb974a}; !- Thermal Zone Name

OS:Surface,
  {859a44e0-b1a9-4b46-9b0e-ac20d701b36a}, !- Handle
  Surface 1,                              !- Name
  Floor,                                  !- Surface Type
  ,                                       !- Construction Name
  {80fec489-ac7a-4eab-b1e1-cfe1dab23586}, !- Space Name
  Foundation,                             !- Outside Boundary Condition
  ,                                       !- Outside Boundary Condition Object
  NoSun,                                  !- Sun Exposure
  NoWind,                                 !- Wind Exposure
  ,                                       !- View Factor to Ground
  ,                                       !- Number of Vertices
  5.57695129776527, -3.048, 0,            !- X,Y,Z Vertex 1 {m}
  5.57695129776527, 3.048, 0,             !- X,Y,Z Vertex 2 {m}
  11.6729512977653, 3.048, 0,             !- X,Y,Z Vertex 3 {m}
  11.6729512977653, -3.048, 0;            !- X,Y,Z Vertex 4 {m}

OS:Surface,
  {65fadc31-7c81-4f51-8c54-c5c557f1f8b0}, !- Handle
  Surface 2,                              !- Name
  Wall,                                   !- Surface Type
  ,                                       !- Construction Name
  {80fec489-ac7a-4eab-b1e1-cfe1dab23586}, !- Space Name
  Surface,                                !- Outside Boundary Condition
  {c86fe193-1af9-4669-a164-ac84fb1058f8}, !- Outside Boundary Condition Object
  NoSun,                                  !- Sun Exposure
  NoWind,                                 !- Wind Exposure
  ,                                       !- View Factor to Ground
  ,                                       !- Number of Vertices
  5.57695129776527, 3.048, 2.4384,        !- X,Y,Z Vertex 1 {m}
  5.57695129776527, 3.048, 0,             !- X,Y,Z Vertex 2 {m}
  5.57695129776527, 0, 0,                 !- X,Y,Z Vertex 3 {m}
  5.57695129776527, 0, 2.4384;            !- X,Y,Z Vertex 4 {m}

OS:Surface,
  {62728a56-7fe2-4ed0-a0c4-56e6da57edff}, !- Handle
  Surface 3,                              !- Name
  Wall,                                   !- Surface Type
  ,                                       !- Construction Name
  {80fec489-ac7a-4eab-b1e1-cfe1dab23586}, !- Space Name
  Surface,                                !- Outside Boundary Condition
  {89a73934-fe43-4bf1-ad08-5e1522ab1987}, !- Outside Boundary Condition Object
  NoSun,                                  !- Sun Exposure
  NoWind,                                 !- Wind Exposure
  ,                                       !- View Factor to Ground
  ,                                       !- Number of Vertices
  11.6729512977653, 3.048, 2.4384,        !- X,Y,Z Vertex 1 {m}
  11.6729512977653, 3.048, 0,             !- X,Y,Z Vertex 2 {m}
  5.57695129776527, 3.048, 0,             !- X,Y,Z Vertex 3 {m}
  5.57695129776527, 3.048, 2.4384;        !- X,Y,Z Vertex 4 {m}

OS:Surface,
  {6ee8cf76-122e-4ad5-966f-04f1e94ab6f3}, !- Handle
  Surface 4,                              !- Name
  Wall,                                   !- Surface Type
  ,                                       !- Construction Name
  {80fec489-ac7a-4eab-b1e1-cfe1dab23586}, !- Space Name
  Outdoors,                               !- Outside Boundary Condition
  ,                                       !- Outside Boundary Condition Object
  SunExposed,                             !- Sun Exposure
  WindExposed,                            !- Wind Exposure
  ,                                       !- View Factor to Ground
  ,                                       !- Number of Vertices
  11.6729512977653, -3.048, 2.4384,       !- X,Y,Z Vertex 1 {m}
  11.6729512977653, -3.048, 0,            !- X,Y,Z Vertex 2 {m}
  11.6729512977653, 3.048, 0,             !- X,Y,Z Vertex 3 {m}
  11.6729512977653, 3.048, 2.4384;        !- X,Y,Z Vertex 4 {m}

OS:Surface,
  {9c611750-7978-49ac-a39f-c5037fcd485c}, !- Handle
  Surface 5,                              !- Name
  Wall,                                   !- Surface Type
  ,                                       !- Construction Name
  {80fec489-ac7a-4eab-b1e1-cfe1dab23586}, !- Space Name
  Outdoors,                               !- Outside Boundary Condition
  ,                                       !- Outside Boundary Condition Object
  SunExposed,                             !- Sun Exposure
  WindExposed,                            !- Wind Exposure
  ,                                       !- View Factor to Ground
  ,                                       !- Number of Vertices
  5.57695129776527, -3.048, 2.4384,       !- X,Y,Z Vertex 1 {m}
  5.57695129776527, -3.048, 0,            !- X,Y,Z Vertex 2 {m}
  11.6729512977653, -3.048, 0,            !- X,Y,Z Vertex 3 {m}
  11.6729512977653, -3.048, 2.4384;       !- X,Y,Z Vertex 4 {m}

OS:Surface,
  {3844268f-8cd8-4847-a248-7abd679a9639}, !- Handle
  Surface 6,                              !- Name
  RoofCeiling,                            !- Surface Type
  ,                                       !- Construction Name
  {80fec489-ac7a-4eab-b1e1-cfe1dab23586}, !- Space Name
  Surface,                                !- Outside Boundary Condition
  {2eff2aac-13f6-4497-bbe2-c0aa2707e29c}, !- Outside Boundary Condition Object
  NoSun,                                  !- Sun Exposure
  NoWind,                                 !- Wind Exposure
  ,                                       !- View Factor to Ground
  ,                                       !- Number of Vertices
  11.6729512977653, -3.048, 2.4384,       !- X,Y,Z Vertex 1 {m}
  11.6729512977653, 3.048, 2.4384,        !- X,Y,Z Vertex 2 {m}
  5.57695129776527, 3.048, 2.4384,        !- X,Y,Z Vertex 3 {m}
  5.57695129776527, -3.048, 2.4384;       !- X,Y,Z Vertex 4 {m}

OS:SpaceType,
  {4942c4e2-03d4-40cc-9554-3e8f621587f7}, !- Handle
  Space Type 1,                           !- Name
  ,                                       !- Default Construction Set Name
  ,                                       !- Default Schedule Set Name
  ,                                       !- Group Rendering Name
  ,                                       !- Design Specification Outdoor Air Object Name
  ,                                       !- Standards Building Type
  garage;                                 !- Standards Space Type

OS:Space,
  {0970d290-7268-41ee-886a-bb4da810d706}, !- Handle
  living space,                           !- Name
  {020db4fd-2b48-4ef7-8caf-be1d31e72a7b}, !- Space Type Name
  ,                                       !- Default Construction Set Name
  ,                                       !- Default Schedule Set Name
  -0,                                     !- Direction of Relative North {deg}
  0,                                      !- X Origin {m}
  0,                                      !- Y Origin {m}
  0,                                      !- Z Origin {m}
  ,                                       !- Building Story Name
  {1456ed78-5b35-409c-8b36-4b1c138a2296}, !- Thermal Zone Name
  ,                                       !- Part of Total Floor Area
  ,                                       !- Design Specification Outdoor Air Object Name
  {0efe7421-e6e5-44bd-b465-a86ad364ab2e}; !- Building Unit Name

OS:Surface,
  {0b596afe-ee4b-4d6f-bcb1-dd310056b968}, !- Handle
  Surface 7,                              !- Name
  Floor,                                  !- Surface Type
  ,                                       !- Construction Name
  {0970d290-7268-41ee-886a-bb4da810d706}, !- Space Name
  Surface,                                !- Outside Boundary Condition
  {47dacbf8-74c0-4eb6-a317-727171f17680}, !- Outside Boundary Condition Object
  NoSun,                                  !- Sun Exposure
  NoWind,                                 !- Wind Exposure
  ,                                       !- View Factor to Ground
  ,                                       !- Number of Vertices
  0, 0, 0,                                !- X,Y,Z Vertex 1 {m}
  0, 5.83647564888264, 0,                 !- X,Y,Z Vertex 2 {m}
  11.6729512977653, 5.83647564888264, 0,  !- X,Y,Z Vertex 3 {m}
  11.6729512977653, 3.048, 0,             !- X,Y,Z Vertex 4 {m}
  5.57695129776527, 3.048, 0,             !- X,Y,Z Vertex 5 {m}
  5.57695129776527, 0, 0;                 !- X,Y,Z Vertex 6 {m}

OS:Surface,
  {4123005d-065d-401c-8b56-3ff9a84abbf0}, !- Handle
  Surface 8,                              !- Name
  Wall,                                   !- Surface Type
  ,                                       !- Construction Name
  {0970d290-7268-41ee-886a-bb4da810d706}, !- Space Name
  Outdoors,                               !- Outside Boundary Condition
  ,                                       !- Outside Boundary Condition Object
  SunExposed,                             !- Sun Exposure
  WindExposed,                            !- Wind Exposure
  ,                                       !- View Factor to Ground
  ,                                       !- Number of Vertices
  0, 5.83647564888264, 2.4384,            !- X,Y,Z Vertex 1 {m}
  0, 5.83647564888264, 0,                 !- X,Y,Z Vertex 2 {m}
  0, 0, 0,                                !- X,Y,Z Vertex 3 {m}
  0, 0, 2.4384;                           !- X,Y,Z Vertex 4 {m}

OS:Surface,
  {3db77468-bdb3-4d5f-9701-d0dc3425ce24}, !- Handle
  Surface 9,                              !- Name
  Wall,                                   !- Surface Type
  ,                                       !- Construction Name
  {0970d290-7268-41ee-886a-bb4da810d706}, !- Space Name
  Outdoors,                               !- Outside Boundary Condition
  ,                                       !- Outside Boundary Condition Object
  SunExposed,                             !- Sun Exposure
  WindExposed,                            !- Wind Exposure
  ,                                       !- View Factor to Ground
  ,                                       !- Number of Vertices
  11.6729512977653, 5.83647564888264, 2.4384, !- X,Y,Z Vertex 1 {m}
  11.6729512977653, 5.83647564888264, 0,  !- X,Y,Z Vertex 2 {m}
  0, 5.83647564888264, 0,                 !- X,Y,Z Vertex 3 {m}
  0, 5.83647564888264, 2.4384;            !- X,Y,Z Vertex 4 {m}

OS:Surface,
  {0eaecfa1-fa7f-4314-bf40-d2665ff6fe11}, !- Handle
  Surface 10,                             !- Name
  Wall,                                   !- Surface Type
  ,                                       !- Construction Name
  {0970d290-7268-41ee-886a-bb4da810d706}, !- Space Name
  Outdoors,                               !- Outside Boundary Condition
  ,                                       !- Outside Boundary Condition Object
  SunExposed,                             !- Sun Exposure
  WindExposed,                            !- Wind Exposure
  ,                                       !- View Factor to Ground
  ,                                       !- Number of Vertices
  11.6729512977653, 3.048, 2.4384,        !- X,Y,Z Vertex 1 {m}
  11.6729512977653, 3.048, 0,             !- X,Y,Z Vertex 2 {m}
  11.6729512977653, 5.83647564888264, 0,  !- X,Y,Z Vertex 3 {m}
  11.6729512977653, 5.83647564888264, 2.4384; !- X,Y,Z Vertex 4 {m}

OS:Surface,
  {89a73934-fe43-4bf1-ad08-5e1522ab1987}, !- Handle
  Surface 11,                             !- Name
  Wall,                                   !- Surface Type
  ,                                       !- Construction Name
  {0970d290-7268-41ee-886a-bb4da810d706}, !- Space Name
  Surface,                                !- Outside Boundary Condition
  {62728a56-7fe2-4ed0-a0c4-56e6da57edff}, !- Outside Boundary Condition Object
  NoSun,                                  !- Sun Exposure
  NoWind,                                 !- Wind Exposure
  ,                                       !- View Factor to Ground
  ,                                       !- Number of Vertices
  5.57695129776527, 3.048, 2.4384,        !- X,Y,Z Vertex 1 {m}
  5.57695129776527, 3.048, 0,             !- X,Y,Z Vertex 2 {m}
  11.6729512977653, 3.048, 0,             !- X,Y,Z Vertex 3 {m}
  11.6729512977653, 3.048, 2.4384;        !- X,Y,Z Vertex 4 {m}

OS:Surface,
  {c86fe193-1af9-4669-a164-ac84fb1058f8}, !- Handle
  Surface 12,                             !- Name
  Wall,                                   !- Surface Type
  ,                                       !- Construction Name
  {0970d290-7268-41ee-886a-bb4da810d706}, !- Space Name
  Surface,                                !- Outside Boundary Condition
  {65fadc31-7c81-4f51-8c54-c5c557f1f8b0}, !- Outside Boundary Condition Object
  NoSun,                                  !- Sun Exposure
  NoWind,                                 !- Wind Exposure
  ,                                       !- View Factor to Ground
  ,                                       !- Number of Vertices
  5.57695129776527, 0, 2.4384,            !- X,Y,Z Vertex 1 {m}
  5.57695129776527, 0, 0,                 !- X,Y,Z Vertex 2 {m}
  5.57695129776527, 3.048, 0,             !- X,Y,Z Vertex 3 {m}
  5.57695129776527, 3.048, 2.4384;        !- X,Y,Z Vertex 4 {m}

OS:Surface,
  {3e90cea6-5307-436d-bfad-2b8b3352153f}, !- Handle
  Surface 13,                             !- Name
  Wall,                                   !- Surface Type
  ,                                       !- Construction Name
  {0970d290-7268-41ee-886a-bb4da810d706}, !- Space Name
  Outdoors,                               !- Outside Boundary Condition
  ,                                       !- Outside Boundary Condition Object
  SunExposed,                             !- Sun Exposure
  WindExposed,                            !- Wind Exposure
  ,                                       !- View Factor to Ground
  ,                                       !- Number of Vertices
  0, 0, 2.4384,                           !- X,Y,Z Vertex 1 {m}
  0, 0, 0,                                !- X,Y,Z Vertex 2 {m}
  5.57695129776527, 0, 0,                 !- X,Y,Z Vertex 3 {m}
  5.57695129776527, 0, 2.4384;            !- X,Y,Z Vertex 4 {m}

OS:Surface,
  {07416b8c-fd63-4dfc-bce2-bba0e629fd4a}, !- Handle
  Surface 14,                             !- Name
  RoofCeiling,                            !- Surface Type
  ,                                       !- Construction Name
  {0970d290-7268-41ee-886a-bb4da810d706}, !- Space Name
  Surface,                                !- Outside Boundary Condition
  {669d9f0f-52a4-4c68-88cb-3705a28f55c9}, !- Outside Boundary Condition Object
  NoSun,                                  !- Sun Exposure
  NoWind,                                 !- Wind Exposure
  ,                                       !- View Factor to Ground
  ,                                       !- Number of Vertices
  5.57695129776527, 0, 2.4384,            !- X,Y,Z Vertex 1 {m}
  5.57695129776527, 3.048, 2.4384,        !- X,Y,Z Vertex 2 {m}
  11.6729512977653, 3.048, 2.4384,        !- X,Y,Z Vertex 3 {m}
  11.6729512977653, 5.83647564888264, 2.4384, !- X,Y,Z Vertex 4 {m}
  0, 5.83647564888264, 2.4384,            !- X,Y,Z Vertex 5 {m}
  0, 0, 2.4384;                           !- X,Y,Z Vertex 6 {m}

OS:SpaceType,
  {020db4fd-2b48-4ef7-8caf-be1d31e72a7b}, !- Handle
  Space Type 2,                           !- Name