!- NOTE: Auto-generated from /test/osw_files/SFD_2000sqft_2story_FB_GRG_UA_Southwest.osw

OS:Version,
  {2aaf800a-01f3-41b0-b224-f8e0fcf36165}, !- Handle
  2.7.0;                                  !- Version Identifier

OS:Building,
  {f22f45bd-3798-4463-b3c5-c9f2089149cd}, !- Handle
  Building 1,                             !- Name
  ,                                       !- Building Sector Type
  45,                                     !- North Axis {deg}
  ,                                       !- Nominal Floor to Floor Height {m}
  ,                                       !- Space Type Name
  ,                                       !- Default Construction Set Name
  ,                                       !- Default Schedule Set Name
  3,                                      !- Standards Number of Stories
  2,                                      !- Standards Number of Above Ground Stories
  ,                                       !- Standards Template
  singlefamilydetached,                   !- Standards Building Type
  1;                                      !- Standards Number of Living Units

OS:Facility,
  {15d7b9e2-70b7-40a2-b9dc-e7657d3eff17}; !- Handle

OS:Site,
  {5d9a4fdc-82f0-44b6-bdd8-3520fc9ebdee}, !- Handle
  Site 1,                                 !- Name
  ,                                       !- Latitude {deg}
  ,                                       !- Longitude {deg}
  ,                                       !- Time Zone {hr}
  ,                                       !- Elevation {m}
  ;                                       !- Terrain

OS:SimulationControl,
  {769f057a-a5af-4af9-88fd-b30511cb9f07}, !- Handle
  ,                                       !- Do Zone Sizing Calculation
  ,                                       !- Do System Sizing Calculation
  ,                                       !- Do Plant Sizing Calculation
  No;                                     !- Run Simulation for Sizing Periods

OS:Sizing:Parameters,
  {f627bb74-fc65-4808-93f7-c4e1214edb8e}, !- Handle
  1.25,                                   !- Heating Sizing Factor
  1.15;                                   !- Cooling Sizing Factor

OS:Timestep,
  {62d5cafb-fde9-4c81-abe5-2f0a13cfd48d}, !- Handle
  6;                                      !- Number of Timesteps per Hour

OS:ShadowCalculation,
  {f48b8ea0-881c-4815-b5e7-a0aa88e077b3}, !- Handle
  20,                                     !- Calculation Frequency
  200;                                    !- Maximum Figures in Shadow Overlap Calculations

OS:HeatBalanceAlgorithm,
  {b1141cb3-5843-40ee-94bf-94ef92674ae4}, !- Handle
  MoisturePenetrationDepthConductionTransferFunction, !- Algorithm
  200;                                    !- Surface Temperature Upper Limit {C}

OS:RunPeriod,
  {59b065fa-be9e-443e-8922-613f700bcbaf}, !- Handle
  Run Period 1,                           !- Name
  1,                                      !- Begin Month
  1,                                      !- Begin Day of Month
  12,                                     !- End Month
  31,                                     !- End Day of Month
  ,                                       !- Use Weather File Holidays and Special Days
  ,                                       !- Use Weather File Daylight Saving Period
  ,                                       !- Apply Weekend Holiday Rule
  ,                                       !- Use Weather File Rain Indicators
  ,                                       !- Use Weather File Snow Indicators
  ;                                       !- Number of Times Runperiod to be Repeated

OS:LifeCycleCost:Parameters,
  {3aaec44f-bab4-42a3-bfbc-0b578909e6ca}, !- Handle
  ,                                       !- Analysis Type
  ,                                       !- Discounting Convention
  ,                                       !- Inflation Approach
  ,                                       !- Real Discount Rate
  ,                                       !- Nominal Discount Rate
  ,                                       !- Inflation
  ,                                       !- Base Date Month
  ,                                       !- Base Date Year
  ,                                       !- Service Date Month
  ,                                       !- Service Date Year
  ;                                       !- Length of Study Period in Years

OS:SurfaceConvectionAlgorithm:Outside,
  {82ac9f17-b9fb-4a55-b02e-7b30045ab068}, !- Handle
  DOE-2;                                  !- Algorithm

OS:SurfaceConvectionAlgorithm:Inside,
  {e1d741a1-ce7d-4c17-8c4a-91d32f1d03ee}, !- Handle
  TARP;                                   !- Algorithm

OS:ZoneCapacitanceMultiplier:ResearchSpecial,
  {b147b04d-f00e-4f2c-9226-dcc5bc8d8768}, !- Handle
  ,                                       !- Temperature Capacity Multiplier
  1,                                      !- Humidity Capacity Multiplier
  ;                                       !- Carbon Dioxide Capacity Multiplier

OS:ThermalZone,
  {1ce194b9-cf97-4540-9d5c-5e52fed73b8d}, !- Handle
  living zone,                            !- Name
  ,                                       !- Multiplier
  ,                                       !- Ceiling Height {m}
  ,                                       !- Volume {m3}
  ,                                       !- Floor Area {m2}
  ,                                       !- Zone Inside Convection Algorithm
  ,                                       !- Zone Outside Convection Algorithm
  ,                                       !- Zone Conditioning Equipment List Name
  {9e4eccc0-bfca-4892-b744-ac3d674889db}, !- Zone Air Inlet Port List
  {b13c6c13-6582-43a6-af1d-af2500546f4a}, !- Zone Air Exhaust Port List
  {6d988439-6c75-407e-a9a3-e1ab8bab48a4}, !- Zone Air Node Name
  {313b1823-e5bd-41ba-b809-5f3aa15226b6}, !- Zone Return Air Port List
  ,                                       !- Primary Daylighting Control Name
  ,                                       !- Fraction of Zone Controlled by Primary Daylighting Control
  ,                                       !- Secondary Daylighting Control Name
  ,                                       !- Fraction of Zone Controlled by Secondary Daylighting Control
  ,                                       !- Illuminance Map Name
  ,                                       !- Group Rendering Name
  ,                                       !- Thermostat Name
  No;                                     !- Use Ideal Air Loads

OS:Node,
  {a9d53e02-f7ee-4e53-bfc3-3b19fa9edc93}, !- Handle
  Node 1,                                 !- Name
  {6d988439-6c75-407e-a9a3-e1ab8bab48a4}, !- Inlet Port
  ;                                       !- Outlet Port

OS:Connection,
  {6d988439-6c75-407e-a9a3-e1ab8bab48a4}, !- Handle
  {1cd0f253-1bc3-43d0-9a37-173647b96089}, !- Name
  {1ce194b9-cf97-4540-9d5c-5e52fed73b8d}, !- Source Object
  11,                                     !- Outlet Port
  {a9d53e02-f7ee-4e53-bfc3-3b19fa9edc93}, !- Target Object
  2;                                      !- Inlet Port

OS:PortList,
  {9e4eccc0-bfca-4892-b744-ac3d674889db}, !- Handle
  {f2c9e062-aa4b-41b2-a194-74911aa0d560}, !- Name
  {1ce194b9-cf97-4540-9d5c-5e52fed73b8d}; !- HVAC Component

OS:PortList,
  {b13c6c13-6582-43a6-af1d-af2500546f4a}, !- Handle
  {5eafb72f-dd53-44ed-b81e-3cffb6c7ba22}, !- Name
  {1ce194b9-cf97-4540-9d5c-5e52fed73b8d}; !- HVAC Component

OS:PortList,
  {313b1823-e5bd-41ba-b809-5f3aa15226b6}, !- Handle
  {e61dd5f2-30ca-4237-a8f5-4e3cc6c1ebbc}, !- Name
  {1ce194b9-cf97-4540-9d5c-5e52fed73b8d}; !- HVAC Component

OS:Sizing:Zone,
  {b1621752-3d18-417c-8957-6e80850d8498}, !- Handle
  {1ce194b9-cf97-4540-9d5c-5e52fed73b8d}, !- Zone or ZoneList Name
  SupplyAirTemperature,                   !- Zone Cooling Design Supply Air Temperature Input Method
  14,                                     !- Zone Cooling Design Supply Air Temperature {C}
  11.11,                                  !- Zone Cooling Design Supply Air Temperature Difference {deltaC}
  SupplyAirTemperature,                   !- Zone Heating Design Supply Air Temperature Input Method
  40,                                     !- Zone Heating Design Supply Air Temperature {C}
  11.11,                                  !- Zone Heating Design Supply Air Temperature Difference {deltaC}
  0.0085,                                 !- Zone Cooling Design Supply Air Humidity Ratio {kg-H2O/kg-air}
  0.008,                                  !- Zone Heating Design Supply Air Humidity Ratio {kg-H2O/kg-air}
  ,                                       !- Zone Heating Sizing Factor
  ,                                       !- Zone Cooling Sizing Factor
  DesignDay,                              !- Cooling Design Air Flow Method
  ,                                       !- Cooling Design Air Flow Rate {m3/s}
  ,                                       !- Cooling Minimum Air Flow per Zone Floor Area {m3/s-m2}
  ,                                       !- Cooling Minimum Air Flow {m3/s}
  ,                                       !- Cooling Minimum Air Flow Fraction
  DesignDay,                              !- Heating Design Air Flow Method
  ,                                       !- Heating Design Air Flow Rate {m3/s}
  ,                                       !- Heating Maximum Air Flow per Zone Floor Area {m3/s-m2}
  ,                                       !- Heating Maximum Air Flow {m3/s}
  ,                                       !- Heating Maximum Air Flow Fraction
  ,                                       !- Design Zone Air Distribution Effectiveness in Cooling Mode
  ,                                       !- Design Zone Air Distribution Effectiveness in Heating Mode
  No,                                     !- Account for Dedicated Outdoor Air System
  NeutralSupplyAir,                       !- Dedicated Outdoor Air System Control Strategy
  autosize,                               !- Dedicated Outdoor Air Low Setpoint Temperature for Design {C}
  autosize;                               !- Dedicated Outdoor Air High Setpoint Temperature for Design {C}

OS:ZoneHVAC:EquipmentList,
  {1945f3ea-0909-4444-9f80-30a8bc609ec4}, !- Handle
  Zone HVAC Equipment List 1,             !- Name
  {1ce194b9-cf97-4540-9d5c-5e52fed73b8d}; !- Thermal Zone

OS:ThermalZone,
  {13b62559-3819-4037-a056-f9eb49723589}, !- Handle
  garage zone,                            !- Name
  ,                                       !- Multiplier
  ,                                       !- Ceiling Height {m}
  ,                                       !- Volume {m3}
  ,                                       !- Floor Area {m2}
  ,                                       !- Zone Inside Convection Algorithm
  ,                                       !- Zone Outside Convection Algorithm
  ,                                       !- Zone Conditioning Equipment List Name
  {c733f5b3-08ae-4c7d-8427-78bf21bf9259}, !- Zone Air Inlet Port List
  {b673836b-36e5-461c-8370-33d43b98b2b1}, !- Zone Air Exhaust Port List
  {3f4c61c4-1b89-4772-947c-4b7ebc9d4ed1}, !- Zone Air Node Name
  {52366897-c102-4a80-979c-9957a9820916}, !- Zone Return Air Port List
  ,                                       !- Primary Daylighting Control Name
  ,                                       !- Fraction of Zone Controlled by Primary Daylighting Control
  ,                                       !- Secondary Daylighting Control Name
  ,                                       !- Fraction of Zone Controlled by Secondary Daylighting Control
  ,                                       !- Illuminance Map Name
  ,                                       !- Group Rendering Name
  ,                                       !- Thermostat Name
  No;                                     !- Use Ideal Air Loads

OS:Node,
  {7df3f5ed-8552-41bb-96c5-520931299d8f}, !- Handle
  Node 2,                                 !- Name
  {3f4c61c4-1b89-4772-947c-4b7ebc9d4ed1}, !- Inlet Port
  ;                                       !- Outlet Port

OS:Connection,
  {3f4c61c4-1b89-4772-947c-4b7ebc9d4ed1}, !- Handle
  {b9acb07d-41d5-4193-a254-59abd27b28c6}, !- Name
  {13b62559-3819-4037-a056-f9eb49723589}, !- Source Object
  11,                                     !- Outlet Port
  {7df3f5ed-8552-41bb-96c5-520931299d8f}, !- Target Object
  2;                                      !- Inlet Port

OS:PortList,
  {c733f5b3-08ae-4c7d-8427-78bf21bf9259}, !- Handle
  {2a6d5856-c812-45b8-a4d1-dbb0af1e3476}, !- Name
  {13b62559-3819-4037-a056-f9eb49723589}; !- HVAC Component

OS:PortList,
  {b673836b-36e5-461c-8370-33d43b98b2b1}, !- Handle
  {4a520183-a17f-4d9a-bba5-c819d4f7e6e5}, !- Name
  {13b62559-3819-4037-a056-f9eb49723589}; !- HVAC Component

OS:PortList,
  {52366897-c102-4a80-979c-9957a9820916}, !- Handle
  {a55e0353-84ea-4412-8c5e-2d3a015bc6d9}, !- Name
  {13b62559-3819-4037-a056-f9eb49723589}; !- HVAC Component

OS:Sizing:Zone,
  {382ca0fe-6475-485b-897d-a08443e57cab}, !- Handle
  {13b62559-3819-4037-a056-f9eb49723589}, !- Zone or ZoneList Name
  SupplyAirTemperature,                   !- Zone Cooling Design Supply Air Temperature Input Method
  14,                                     !- Zone Cooling Design Supply Air Temperature {C}
  11.11,                                  !- Zone Cooling Design Supply Air Temperature Difference {deltaC}
  SupplyAirTemperature,                   !- Zone Heating Design Supply Air Temperature Input Method
  40,                                     !- Zone Heating Design Supply Air Temperature {C}
  11.11,                                  !- Zone Heating Design Supply Air Temperature Difference {deltaC}
  0.0085,                                 !- Zone Cooling Design Supply Air Humidity Ratio {kg-H2O/kg-air}
  0.008,                                  !- Zone Heating Design Supply Air Humidity Ratio {kg-H2O/kg-air}
  ,                                       !- Zone Heating Sizing Factor
  ,                                       !- Zone Cooling Sizing Factor
  DesignDay,                              !- Cooling Design Air Flow Method
  ,                                       !- Cooling Design Air Flow Rate {m3/s}
  ,                                       !- Cooling Minimum Air Flow per Zone Floor Area {m3/s-m2}
  ,                                       !- Cooling Minimum Air Flow {m3/s}
  ,                                       !- Cooling Minimum Air Flow Fraction
  DesignDay,                              !- Heating Design Air Flow Method
  ,                                       !- Heating Design Air Flow Rate {m3/s}
  ,                                       !- Heating Maximum Air Flow per Zone Floor Area {m3/s-m2}
  ,                                       !- Heating Maximum Air Flow {m3/s}
  ,                                       !- Heating Maximum Air Flow Fraction
  ,                                       !- Design Zone Air Distribution Effectiveness in Cooling Mode
  ,                                       !- Design Zone Air Distribution Effectiveness in Heating Mode
  No,                                     !- Account for Dedicated Outdoor Air System
  NeutralSupplyAir,                       !- Dedicated Outdoor Air System Control Strategy
  autosize,                               !- Dedicated Outdoor Air Low Setpoint Temperature for Design {C}
  autosize;                               !- Dedicated Outdoor Air High Setpoint Temperature for Design {C}

OS:ZoneHVAC:EquipmentList,
  {64d6e7f4-ad04-4abb-86fe-443a9401f52f}, !- Handle
  Zone HVAC Equipment List 2,             !- Name
  {13b62559-3819-4037-a056-f9eb49723589}; !- Thermal Zone

OS:Space,
  {cc112245-6181-4626-bc80-5c583fff837c}, !- Handle
  garage space,                           !- Name
  {0ec3a9ab-10ea-47ea-b84c-3ef3231eb9f3}, !- Space Type Name
  ,                                       !- Default Construction Set Name
  ,                                       !- Default Schedule Set Name
  -0,                                     !- Direction of Relative North {deg}
  0,                                      !- X Origin {m}
  0,                                      !- Y Origin {m}
  0,                                      !- Z Origin {m}
  ,                                       !- Building Story Name
  {13b62559-3819-4037-a056-f9eb49723589}; !- Thermal Zone Name

OS:Surface,
  {7caf4817-0721-4f5d-ba54-ec911083828e}, !- Handle
  Surface 1,                              !- Name
  Floor,                                  !- Surface Type
  ,                                       !- Construction Name
  {cc112245-6181-4626-bc80-5c583fff837c}, !- Space Name
  Foundation,                             !- Outside Boundary Condition
  ,                                       !- Outside Boundary Condition Object
  NoSun,                                  !- Sun Exposure
  NoWind,                                 !- Wind Exposure
  ,                                       !- View Factor to Ground
  ,                                       !- Number of Vertices
  5.57695129776527, -3.048, 0,            !- X,Y,Z Vertex 1 {m}
  5.57695129776527, 3.048, 0,             !- X,Y,Z Vertex 2 {m}
  11.6729512977653, 3.048, 0,             !- X,Y,Z Vertex 3 {m}
  11.6729512977653, -3.048, 0;            !- X,Y,Z Vertex 4 {m}

OS:Surface,
  {064dde89-c5ea-4cdb-8a12-9de92acbf848}, !- Handle
  Surface 2,                              !- Name
  Wall,                                   !- Surface Type
  ,                                       !- Construction Name
  {cc112245-6181-4626-bc80-5c583fff837c}, !- Space Name
  Surface,                                !- Outside Boundary Condition
  {eee25021-bbc8-4b9f-9211-1988d34e364c}, !- Outside Boundary Condition Object
  NoSun,                                  !- Sun Exposure
  NoWind,                                 !- Wind Exposure
  ,                                       !- View Factor to Ground
  ,                                       !- Number of Vertices
  5.57695129776527, 3.048, 2.4384,        !- X,Y,Z Vertex 1 {m}
  5.57695129776527, 3.048, 0,             !- X,Y,Z Vertex 2 {m}
  5.57695129776527, 0, 0,                 !- X,Y,Z Vertex 3 {m}
  5.57695129776527, 0, 2.4384;            !- X,Y,Z Vertex 4 {m}

OS:Surface,
  {1c54c316-de61-4011-8951-4cf65d56dfb2}, !- Handle
  Surface 3,                              !- Name
  Wall,                                   !- Surface Type
  ,                                       !- Construction Name
  {cc112245-6181-4626-bc80-5c583fff837c}, !- Space Name
  Surface,                                !- Outside Boundary Condition
  {b94b3585-cf89-4eee-8212-d4f05c9aba94}, !- Outside Boundary Condition Object
  NoSun,                                  !- Sun Exposure
  NoWind,                                 !- Wind Exposure
  ,                                       !- View Factor to Ground
  ,                                       !- Number of Vertices
  11.6729512977653, 3.048, 2.4384,        !- X,Y,Z Vertex 1 {m}
  11.6729512977653, 3.048, 0,             !- X,Y,Z Vertex 2 {m}
  5.57695129776527, 3.048, 0,             !- X,Y,Z Vertex 3 {m}
  5.57695129776527, 3.048, 2.4384;        !- X,Y,Z Vertex 4 {m}

OS:Surface,
  {031cdaae-d9bc-4391-8f9e-4a2b516766d5}, !- Handle
  Surface 4,                              !- Name
  Wall,                                   !- Surface Type
  ,                                       !- Construction Name
  {cc112245-6181-4626-bc80-5c583fff837c}, !- Space Name
  Outdoors,                               !- Outside Boundary Condition
  ,                                       !- Outside Boundary Condition Object
  SunExposed,                             !- Sun Exposure
  WindExposed,                            !- Wind Exposure
  ,                                       !- View Factor to Ground
  ,                                       !- Number of Vertices
  11.6729512977653, -3.048, 2.4384,       !- X,Y,Z Vertex 1 {m}
  11.6729512977653, -3.048, 0,            !- X,Y,Z Vertex 2 {m}
  11.6729512977653, 3.048, 0,             !- X,Y,Z Vertex 3 {m}
  11.6729512977653, 3.048, 2.4384;        !- X,Y,Z Vertex 4 {m}

OS:Surface,
  {2ff9b348-a843-4b3d-9c06-9b641523eedd}, !- Handle
  Surface 5,                              !- Name
  Wall,                                   !- Surface Type
  ,                                       !- Construction Name
  {cc112245-6181-4626-bc80-5c583fff837c}, !- Space Name
  Outdoors,                               !- Outside Boundary Condition
  ,                                       !- Outside Boundary Condition Object
  SunExposed,                             !- Sun Exposure
  WindExposed,                            !- Wind Exposure
  ,                                       !- View Factor to Ground
  ,                                       !- Number of Vertices
  5.57695129776527, -3.048, 2.4384,       !- X,Y,Z Vertex 1 {m}
  5.57695129776527, -3.048, 0,            !- X,Y,Z Vertex 2 {m}
  11.6729512977653, -3.048, 0,            !- X,Y,Z Vertex 3 {m}
  11.6729512977653, -3.048, 2.4384;       !- X,Y,Z Vertex 4 {m}

OS:Surface,
  {33bb21a8-4547-48d1-8f97-0698d858273a}, !- Handle
  Surface 6,                              !- Name
  RoofCeiling,                            !- Surface Type
  ,                                       !- Construction Name
  {cc112245-6181-4626-bc80-5c583fff837c}, !- Space Name
  Surface,                                !- Outside Boundary Condition
  {d30d9d8b-a2a7-48e1-8f94-739af27e1177}, !- Outside Boundary Condition Object
  NoSun,                                  !- Sun Exposure
  NoWind,                                 !- Wind Exposure
  ,                                       !- View Factor to Ground
  ,                                       !- Number of Vertices
  11.6729512977653, -3.048, 2.4384,       !- X,Y,Z Vertex 1 {m}
  11.6729512977653, 3.048, 2.4384,        !- X,Y,Z Vertex 2 {m}
  5.57695129776527, 3.048, 2.4384,        !- X,Y,Z Vertex 3 {m}
  5.57695129776527, -3.048, 2.4384;       !- X,Y,Z Vertex 4 {m}

OS:SpaceType,
  {0ec3a9ab-10ea-47ea-b84c-3ef3231eb9f3}, !- Handle
  Space Type 1,                           !- Name
  ,                                       !- Default Construction Set Name
  ,                                       !- Default Schedule Set Name
  ,                                       !- Group Rendering Name
  ,                                       !- Design Specification Outdoor Air Object Name
  ,                                       !- Standards Template
  ,                                       !- Standards Building Type
  garage;                                 !- Standards Space Type

OS:InternalMass:Definition,
  {a3cabcf0-42f4-4bde-afa0-e8daf3eda6d9}, !- Handle
  residential empd dummy garage space,    !- Name
  {d1cf02dd-3b46-4322-96ec-c35dae9cf4c7}, !- Construction Name
  SurfaceArea,                            !- Design Level Calculation Method
  37.1612160000002,                       !- Surface Area {m2}
  ,                                       !- Surface Area per Space Floor Area {dimensionless}
  ;                                       !- Surface Area per Person {m2/person}

OS:InternalMass,
  {8e679ca2-7091-4139-b54d-d84f5e1f23e2}, !- Handle
  residential empd dummy garage space,    !- Name
  {a3cabcf0-42f4-4bde-afa0-e8daf3eda6d9}, !- Internal Mass Definition Name
  {cc112245-6181-4626-bc80-5c583fff837c}, !- Space or SpaceType Name
  1;                                      !- Multiplier

OS:Material,
  {bfbe43bd-d4e9-4bff-9122-b14202ff516d}, !- Handle
  residential empd dummy,                 !- Name
  Rough,                                  !- Roughness
  0.001,                                  !- Thickness {m}
  0.1,                                    !- Conductivity {W/m-K}
  100,                                    !- Density {kg/m3}
  100,                                    !- Specific Heat {J/kg-K}
  0.9,                                    !- Thermal Absorptance
  0.5,                                    !- Solar Absorptance
  0.1;                                    !- Visible Absorptance

OS:MaterialProperty:MoisturePenetrationDepth:Settings,
  {436d5bcc-ebac-4ccd-ac67-5fcc9e363c00}, !- Handle
  {bfbe43bd-d4e9-4bff-9122-b14202ff516d}, !- Material Name
  500,                                    !- Water Vapor Diffusion Resistance Factor {dimensionless}
  0.0069,                                 !- Moisture Equation Coefficient a {dimensionless}
  0.9066,                                 !- Moisture Equation Coefficient b {dimensionless}
  0.0404,                                 !- Moisture Equation Coefficient c {dimensionless}
  22.1121,                                !- Moisture Equation Coefficient d {dimensionless}
  0.1,                                    !- Surface Layer Penetration Depth {m}
  0,                                      !- Deep Layer Penetration Depth {m}
  0,                                      !- Coating Layer Thickness {m}
  0;                                      !- Coating Layer Water Vapor Diffusion Resistance Factor {dimensionless}

OS:Construction,
  {d1cf02dd-3b46-4322-96ec-c35dae9cf4c7}, !- Handle
  residential empd dummy,                 !- Name
  ,                                       !- Surface Rendering Name
  {bfbe43bd-d4e9-4bff-9122-b14202ff516d}; !- Layer 1

OS:Space,
  {a31f7a77-ae3e-46cc-818a-4f8e82febc83}, !- Handle
  living space,                           !- Name
  {a498cc51-e7fa-47a0-8a69-2e4a5f3b1f65}, !- Space Type Name
  ,                                       !- Default Construction Set Name
  ,                                       !- Default Schedule Set Name
  -0,                                     !- Direction of Relative North {deg}
  0,                                      !- X Origin {m}
  0,                                      !- Y Origin {m}
  0,                                      !- Z Origin {m}
  ,                                       !- Building Story Name
  {1ce194b9-cf97-4540-9d5c-5e52fed73b8d}, !- Thermal Zone Name
  ,                                       !- Part of Total Floor Area
  ,                                       !- Design Specification Outdoor Air Object Name
  {72b62554-4478-4b3f-a801-9b9089bfbe84}; !- Building Unit Name

OS:Surface,
  {6c957e4d-e9db-4127-a071-1bd330246d5b}, !- Handle
  Surface 7,                              !- Name
  Floor,                                  !- Surface Type
  ,                                       !- Construction Name
  {a31f7a77-ae3e-46cc-818a-4f8e82febc83}, !- Space Name
  Surface,                                !- Outside Boundary Condition
  {efe91cf4-a691-4d98-99d5-2bc4fc28db93}, !- Outside Boundary Condition Object
  NoSun,                                  !- Sun Exposure
  NoWind,                                 !- Wind Exposure
  ,                                       !- View Factor to Ground
  ,                                       !- Number of Vertices
  0, 0, 0,                                !- X,Y,Z Vertex 1 {m}
  0, 5.83647564888264, 0,                 !- X,Y,Z Vertex 2 {m}
  11.6729512977653, 5.83647564888264, 0,  !- X,Y,Z Vertex 3 {m}
  11.6729512977653, 3.048, 0,             !- X,Y,Z Vertex 4 {m}
  5.57695129776527, 3.048, 0,             !- X,Y,Z Vertex 5 {m}
  5.57695129776527, 0, 0;                 !- X,Y,Z Vertex 6 {m}

OS:Surface,
  {0bf4724c-8bb5-46ff-af1e-113aa196a6da}, !- Handle
  Surface 8,                              !- Name
  Wall,                                   !- Surface Type
  ,                                       !- Construction Name
  {a31f7a77-ae3e-46cc-818a-4f8e82febc83}, !- Space Name
  Outdoors,                               !- Outside Boundary Condition
  ,                                       !- Outside Boundary Condition Object
  SunExposed,                             !- Sun Exposure
  WindExposed,                            !- Wind Exposure
  ,                                       !- View Factor to Ground
  ,                                       !- Number of Vertices
  0, 5.83647564888264, 2.4384,            !- X,Y,Z Vertex 1 {m}
  0, 5.83647564888264, 0,                 !- X,Y,Z Vertex 2 {m}
  0, 0, 0,                                !- X,Y,Z Vertex 3 {m}
  0, 0, 2.4384;                           !- X,Y,Z Vertex 4 {m}

OS:Surface,
  {ebc32e0d-0215-4d91-a940-d788c7dba39e}, !- Handle
  Surface 9,                              !- Name
  Wall,                                   !- Surface Type
  ,                                       !- Construction Name
  {a31f7a77-ae3e-46cc-818a-4f8e82febc83}, !- Space Name
  Outdoors,                               !- Outside Boundary Condition
  ,                                       !- Outside Boundary Condition Object
  SunExposed,                             !- Sun Exposure
  WindExposed,                            !- Wind Exposure
  ,                                       !- View Factor to Ground
  ,                                       !- Number of Vertices
  11.6729512977653, 5.83647564888264, 2.4384, !- X,Y,Z Vertex 1 {m}
  11.6729512977653, 5.83647564888264, 0,  !- X,Y,Z Vertex 2 {m}
  0, 5.83647564888264, 0,                 !- X,Y,Z Vertex 3 {m}
  0, 5.83647564888264, 2.4384;            !- X,Y,Z Vertex 4 {m}

OS:Surface,
  {cf60e174-87c9-467e-a57c-d39418532b4d}, !- Handle
  Surface 10,                             !- Name
  Wall,                                   !- Surface Type
  ,                                       !- Construction Name
  {a31f7a77-ae3e-46cc-818a-4f8e82febc83}, !- Space Name
  Outdoors,                               !- Outside Boundary Condition
  ,                                       !- Outside Boundary Condition Object
  SunExposed,                             !- Sun Exposure
  WindExposed,                            !- Wind Exposure
  ,                                       !- View Factor to Ground
  ,                                       !- Number of Vertices
  11.6729512977653, 3.048, 2.4384,        !- X,Y,Z Vertex 1 {m}