!- NOTE: Auto-generated from /test/osw_files/SFA_4units_1story_SL_UA_3Beds_2Baths_Denver_Central_System_PTAC.osw

OS:Version,
  {28135015-b5da-418f-809d-fe82f4d20333}, !- Handle
  2.6.0;                                  !- Version Identifier

OS:Building,
  {e8cfa0d5-00f4-4596-a9ae-42cdcf8f5811}, !- Handle
  Building 1,                             !- Name
  ,                                       !- Building Sector Type
  0,                                      !- North Axis {deg}
  ,                                       !- Nominal Floor to Floor Height {m}
  ,                                       !- Space Type Name
  ,                                       !- Default Construction Set Name
  ,                                       !- Default Schedule Set Name
  1,                                      !- Standards Number of Stories
  1,                                      !- Standards Number of Above Ground Stories
  singlefamilyattached,                   !- Standards Building Type
  4;                                      !- Standards Number of Living Units

OS:Facility,
  {fc1c58b5-ccbf-4276-96f9-46897fd816de}; !- Handle

OS:Site,
  {53fb5c00-b608-446f-b6a6-8663e11df3e9}, !- Handle
  Denver Intl Ap_CO_USA,                  !- Name
  39.83,                                  !- Latitude {deg}
  -104.65,                                !- Longitude {deg}
  -7,                                     !- Time Zone {hr}
  1650,                                   !- Elevation {m}
  ;                                       !- Terrain

OS:SimulationControl,
  {0f4c3f1b-7971-4cff-8dbd-751bf6631168}, !- Handle
  ,                                       !- Do Zone Sizing Calculation
  ,                                       !- Do System Sizing Calculation
  ,                                       !- Do Plant Sizing Calculation
  Yes;                                    !- Run Simulation for Sizing Periods

OS:Sizing:Parameters,
  {c7cd6342-5a06-4f34-861c-bf61986cfddd}, !- Handle
  1.25,                                   !- Heating Sizing Factor
  1.15;                                   !- Cooling Sizing Factor

OS:Timestep,
  {0995bffa-55f3-4c46-86c7-149409d59b7f}, !- Handle
  6;                                      !- Number of Timesteps per Hour

OS:ShadowCalculation,
  {b18cfbea-25cb-48bb-aa08-e6bac5bf4804}, !- Handle
  20,                                     !- Calculation Frequency
  200;                                    !- Maximum Figures in Shadow Overlap Calculations

OS:HeatBalanceAlgorithm,
  {ebfb5416-03f5-42b2-a593-b4f38c7b3c2e}, !- Handle
  ConductionTransferFunction,             !- Algorithm
  200;                                    !- Surface Temperature Upper Limit {C}

OS:RunPeriod,
  {44e17255-e420-40ad-97c7-a0269171c087}, !- Handle
  Run Period 1,                           !- Name
  1,                                      !- Begin Month
  1,                                      !- Begin Day of Month
  12,                                     !- End Month
  31,                                     !- End Day of Month
  ,                                       !- Use Weather File Holidays and Special Days
  ,                                       !- Use Weather File Daylight Saving Period
  ,                                       !- Apply Weekend Holiday Rule
  ,                                       !- Use Weather File Rain Indicators
  ,                                       !- Use Weather File Snow Indicators
  ;                                       !- Number of Times Runperiod to be Repeated

OS:LifeCycleCost:Parameters,
  {8ad77299-4538-4c16-8ce5-3ec4c6b04d04}, !- Handle
  ,                                       !- Analysis Type
  ,                                       !- Discounting Convention
  ,                                       !- Inflation Approach
  ,                                       !- Real Discount Rate
  ,                                       !- Nominal Discount Rate
  ,                                       !- Inflation
  ,                                       !- Base Date Month
  ,                                       !- Base Date Year
  ,                                       !- Service Date Month
  ,                                       !- Service Date Year
  ;                                       !- Length of Study Period in Years

OS:ThermalZone,
  {65791a97-33d6-4ce8-aeeb-4ff9ef8429a0}, !- Handle
  living zone,                            !- Name
  ,                                       !- Multiplier
  ,                                       !- Ceiling Height {m}
  ,                                       !- Volume {m3}
  ,                                       !- Floor Area {m2}
  ,                                       !- Zone Inside Convection Algorithm
  ,                                       !- Zone Outside Convection Algorithm
  ,                                       !- Zone Conditioning Equipment List Name
  {87d02988-c047-4fc7-9d04-d4664136f38e}, !- Zone Air Inlet Port List
  {16947cd3-6c25-43e4-a578-afe032f10b4f}, !- Zone Air Exhaust Port List
  {2939cf5b-ed54-4c1a-8b54-a125c94df799}, !- Zone Air Node Name
  ,                                       !- Zone Return Air Node Name
  ,                                       !- Primary Daylighting Control Name
  ,                                       !- Fraction of Zone Controlled by Primary Daylighting Control
  ,                                       !- Secondary Daylighting Control Name
  ,                                       !- Fraction of Zone Controlled by Secondary Daylighting Control
  ,                                       !- Illuminance Map Name
  ,                                       !- Group Rendering Name
  {f48ea46d-567e-4bcd-8d54-8cb3354a43ad}, !- Thermostat Name
  No;                                     !- Use Ideal Air Loads

OS:Node,
  {6daff6b5-b3c8-4660-bc0a-08c3f2c66c1d}, !- Handle
  Node 1,                                 !- Name
  {2939cf5b-ed54-4c1a-8b54-a125c94df799}, !- Inlet Port
  ;                                       !- Outlet Port

OS:Connection,
  {2939cf5b-ed54-4c1a-8b54-a125c94df799}, !- Handle
  {13d23e16-cee6-44cf-8242-c6dfe2f7fb25}, !- Name
  {65791a97-33d6-4ce8-aeeb-4ff9ef8429a0}, !- Source Object
  11,                                     !- Outlet Port
  {6daff6b5-b3c8-4660-bc0a-08c3f2c66c1d}, !- Target Object
  2;                                      !- Inlet Port

OS:PortList,
  {87d02988-c047-4fc7-9d04-d4664136f38e}, !- Handle
  {ae7caf1b-eec6-4e5a-8dec-0fbf2541672f}, !- Name
  {65791a97-33d6-4ce8-aeeb-4ff9ef8429a0}, !- HVAC Component
  {769a9199-b2f0-47ea-808a-be9007afab12}; !- Port 1

OS:PortList,
  {16947cd3-6c25-43e4-a578-afe032f10b4f}, !- Handle
  {d43e7c59-7b26-4aa5-8f3e-2f485a3025f7}, !- Name
  {65791a97-33d6-4ce8-aeeb-4ff9ef8429a0}, !- HVAC Component
  {9f5eba2f-2f4d-424a-a3d7-05d4fbc511dc}; !- Port 1

OS:Sizing:Zone,
  {4b3b0b12-b5aa-46ae-bd33-5581df84e227}, !- Handle
  {65791a97-33d6-4ce8-aeeb-4ff9ef8429a0}, !- Zone or ZoneList Name
  SupplyAirTemperature,                   !- Zone Cooling Design Supply Air Temperature Input Method
  14,                                     !- Zone Cooling Design Supply Air Temperature {C}
  11.11,                                  !- Zone Cooling Design Supply Air Temperature Difference {deltaC}
  SupplyAirTemperature,                   !- Zone Heating Design Supply Air Temperature Input Method
  50,                                     !- Zone Heating Design Supply Air Temperature {C}
  11.11,                                  !- Zone Heating Design Supply Air Temperature Difference {deltaC}
  0.008,                                  !- Zone Cooling Design Supply Air Humidity Ratio {kg-H2O/kg-air}
  0.008,                                  !- Zone Heating Design Supply Air Humidity Ratio {kg-H2O/kg-air}
  ,                                       !- Zone Heating Sizing Factor
  ,                                       !- Zone Cooling Sizing Factor
  DesignDay,                              !- Cooling Design Air Flow Method
  ,                                       !- Cooling Design Air Flow Rate {m3/s}
  ,                                       !- Cooling Minimum Air Flow per Zone Floor Area {m3/s-m2}
  ,                                       !- Cooling Minimum Air Flow {m3/s}
  ,                                       !- Cooling Minimum Air Flow Fraction
  DesignDay,                              !- Heating Design Air Flow Method
  ,                                       !- Heating Design Air Flow Rate {m3/s}
  ,                                       !- Heating Maximum Air Flow per Zone Floor Area {m3/s-m2}
  ,                                       !- Heating Maximum Air Flow {m3/s}
  ,                                       !- Heating Maximum Air Flow Fraction
  ,                                       !- Design Zone Air Distribution Effectiveness in Cooling Mode
  ,                                       !- Design Zone Air Distribution Effectiveness in Heating Mode
  No,                                     !- Account for Dedicated Outdoor Air System
  NeutralSupplyAir,                       !- Dedicated Outdoor Air System Control Strategy
  autosize,                               !- Dedicated Outdoor Air Low Setpoint Temperature for Design {C}
  autosize;                               !- Dedicated Outdoor Air High Setpoint Temperature for Design {C}

OS:ZoneHVAC:EquipmentList,
  {32b2b498-f113-48d3-b5fa-0d1478b2c491}, !- Handle
  Zone HVAC Equipment List 1,             !- Name
  {65791a97-33d6-4ce8-aeeb-4ff9ef8429a0}, !- Thermal Zone
  {5c57c8f9-9153-4e28-815e-86bbaa36a696}, !- Zone Equipment 1
  1,                                      !- Zone Equipment Cooling Sequence 1
  1;                                      !- Zone Equipment Heating or No-Load Sequence 1

OS:Space,
  {60de8c23-1a1b-406c-a6f9-1210cc25524a}, !- Handle
  living space,                           !- Name
  {2a77d5c4-9488-4bc7-8b2a-c32342e09b60}, !- Space Type Name
  ,                                       !- Default Construction Set Name
  ,                                       !- Default Schedule Set Name
  ,                                       !- Direction of Relative North {deg}
  ,                                       !- X Origin {m}
  ,                                       !- Y Origin {m}
  ,                                       !- Z Origin {m}
  ,                                       !- Building Story Name
  {65791a97-33d6-4ce8-aeeb-4ff9ef8429a0}, !- Thermal Zone Name
  ,                                       !- Part of Total Floor Area
  ,                                       !- Design Specification Outdoor Air Object Name
  {150e29ce-47f9-4839-a0ec-07687f33207b}; !- Building Unit Name

OS:Surface,
  {d31ccde6-eca4-4568-9a7f-0a7cb8c833ff}, !- Handle
  Surface 1,                              !- Name
  Floor,                                  !- Surface Type
  ,                                       !- Construction Name
  {60de8c23-1a1b-406c-a6f9-1210cc25524a}, !- Space Name
  Foundation,                             !- Outside Boundary Condition
  ,                                       !- Outside Boundary Condition Object
  NoSun,                                  !- Sun Exposure
  NoWind,                                 !- Wind Exposure
  ,                                       !- View Factor to Ground
  ,                                       !- Number of Vertices
  0, -12.9315688143396, 0,                !- X,Y,Z Vertex 1 {m}
  0, 0, 0,                                !- X,Y,Z Vertex 2 {m}
  6.46578440716979, 0, 0,                 !- X,Y,Z Vertex 3 {m}
  6.46578440716979, -12.9315688143396, 0; !- X,Y,Z Vertex 4 {m}

OS:Surface,
  {288c2769-882f-4478-a509-c506c920ee65}, !- Handle
  Surface 2,                              !- Name
  Wall,                                   !- Surface Type
  ,                                       !- Construction Name
  {60de8c23-1a1b-406c-a6f9-1210cc25524a}, !- Space Name
  Outdoors,                               !- Outside Boundary Condition
  ,                                       !- Outside Boundary Condition Object
  SunExposed,                             !- Sun Exposure
  WindExposed,                            !- Wind Exposure
  ,                                       !- View Factor to Ground
  ,                                       !- Number of Vertices
  0, 0, 2.4384,                           !- X,Y,Z Vertex 1 {m}
  0, 0, 0,                                !- X,Y,Z Vertex 2 {m}
  0, -12.9315688143396, 0,                !- X,Y,Z Vertex 3 {m}
  0, -12.9315688143396, 2.4384;           !- X,Y,Z Vertex 4 {m}

OS:Surface,
  {ffe6cad8-5c5c-444e-b634-ef2038075107}, !- Handle
  Surface 3,                              !- Name
  Wall,                                   !- Surface Type
  ,                                       !- Construction Name
  {60de8c23-1a1b-406c-a6f9-1210cc25524a}, !- Space Name
  Outdoors,                               !- Outside Boundary Condition
  ,                                       !- Outside Boundary Condition Object
  SunExposed,                             !- Sun Exposure
  WindExposed,                            !- Wind Exposure
  ,                                       !- View Factor to Ground
  ,                                       !- Number of Vertices
  6.46578440716979, 0, 2.4384,            !- X,Y,Z Vertex 1 {m}
  6.46578440716979, 0, 0,                 !- X,Y,Z Vertex 2 {m}
  0, 0, 0,                                !- X,Y,Z Vertex 3 {m}
  0, 0, 2.4384;                           !- X,Y,Z Vertex 4 {m}

OS:Surface,
  {62d60a0c-b86e-45dc-9a9e-6312ce5e856f}, !- Handle
  Surface 4,                              !- Name
  Wall,                                   !- Surface Type
  ,                                       !- Construction Name
  {60de8c23-1a1b-406c-a6f9-1210cc25524a}, !- Space Name
  Surface,                                !- Outside Boundary Condition
  {73250e49-d98a-4705-81dc-a28bef85732d}, !- Outside Boundary Condition Object
  NoSun,                                  !- Sun Exposure
  NoWind,                                 !- Wind Exposure
  ,                                       !- View Factor to Ground
  ,                                       !- Number of Vertices
  6.46578440716979, -12.9315688143396, 2.4384, !- X,Y,Z Vertex 1 {m}
  6.46578440716979, -12.9315688143396, 0, !- X,Y,Z Vertex 2 {m}
  6.46578440716979, 0, 0,                 !- X,Y,Z Vertex 3 {m}
  6.46578440716979, 0, 2.4384;            !- X,Y,Z Vertex 4 {m}

OS:Surface,
  {092b9f36-1c5a-4d60-9d45-5af5e6c3d457}, !- Handle
  Surface 5,                              !- Name
  Wall,                                   !- Surface Type
  ,                                       !- Construction Name
  {60de8c23-1a1b-406c-a6f9-1210cc25524a}, !- Space Name
  Outdoors,                               !- Outside Boundary Condition
  ,                                       !- Outside Boundary Condition Object
  SunExposed,                             !- Sun Exposure
  WindExposed,                            !- Wind Exposure
  ,                                       !- View Factor to Ground
  ,                                       !- Number of Vertices
  0, -12.9315688143396, 2.4384,           !- X,Y,Z Vertex 1 {m}
  0, -12.9315688143396, 0,                !- X,Y,Z Vertex 2 {m}
  6.46578440716979, -12.9315688143396, 0, !- X,Y,Z Vertex 3 {m}
  6.46578440716979, -12.9315688143396, 2.4384; !- X,Y,Z Vertex 4 {m}

OS:Surface,
  {f8be82f6-1f79-4c44-a7ac-1b99a3d6460a}, !- Handle
  Surface 6,                              !- Name
  RoofCeiling,                            !- Surface Type
  ,                                       !- Construction Name
  {60de8c23-1a1b-406c-a6f9-1210cc25524a}, !- Space Name
  Surface,                                !- Outside Boundary Condition
  {12860a4b-a9a2-465f-aa81-305c3caa9925}, !- Outside Boundary Condition Object
  NoSun,                                  !- Sun Exposure
  NoWind,                                 !- Wind Exposure
  ,                                       !- View Factor to Ground
  ,                                       !- Number of Vertices
  6.46578440716979, -12.9315688143396, 2.4384, !- X,Y,Z Vertex 1 {m}
  6.46578440716979, 0, 2.4384,            !- X,Y,Z Vertex 2 {m}
  0, 0, 2.4384,                           !- X,Y,Z Vertex 3 {m}
  0, -12.9315688143396, 2.4384;           !- X,Y,Z Vertex 4 {m}

OS:SpaceType,
  {2a77d5c4-9488-4bc7-8b2a-c32342e09b60}, !- Handle
  Space Type 1,                           !- Name
  ,                                       !- Default Construction Set Name
  ,                                       !- Default Schedule Set Name
  ,                                       !- Group Rendering Name
  ,                                       !- Design Specification Outdoor Air Object Name
  ,                                       !- Standards Building Type
  living;                                 !- Standards Space Type

OS:ThermalZone,
  {ffc7f32d-5f05-43c7-a309-e70c45eac9aa}, !- Handle
  living zone|unit 2,                     !- Name
  ,                                       !- Multiplier
  ,                                       !- Ceiling Height {m}
  ,                                       !- Volume {m3}
  ,                                       !- Floor Area {m2}
  ,                                       !- Zone Inside Convection Algorithm
  ,                                       !- Zone Outside Convection Algorithm
  ,                                       !- Zone Conditioning Equipment List Name
  {15ab16ec-3d5a-4896-b0d1-073c2996869f}, !- Zone Air Inlet Port List
  {dcd67393-fab1-4499-b058-d8293d4e6526}, !- Zone Air Exhaust Port List
  {357e9c1d-f6dc-4722-b1b6-69554f6f1689}, !- Zone Air Node Name
  ,                                       !- Zone Return Air Node Name
  ,                                       !- Primary Daylighting Control Name
  ,                                       !- Fraction of Zone Controlled by Primary Daylighting Control
  ,                                       !- Secondary Daylighting Control Name
  ,                                       !- Fraction of Zone Controlled by Secondary Daylighting Control
  ,                                       !- Illuminance Map Name
  ,                                       !- Group Rendering Name
  {0e1b9b52-bee9-4ff9-8976-f0f48dabf17d}, !- Thermostat Name
  No;                                     !- Use Ideal Air Loads

OS:Node,
  {2eb2c918-bace-4c0b-9795-a31e5de8bb7a}, !- Handle
  Node 2,                                 !- Name
  {357e9c1d-f6dc-4722-b1b6-69554f6f1689}, !- Inlet Port
  ;                                       !- Outlet Port

OS:Connection,
  {357e9c1d-f6dc-4722-b1b6-69554f6f1689}, !- Handle
  {04bb3760-00c0-4e2e-b646-1ecf05c97a3d}, !- Name
  {ffc7f32d-5f05-43c7-a309-e70c45eac9aa}, !- Source Object
  11,                                     !- Outlet Port
  {2eb2c918-bace-4c0b-9795-a31e5de8bb7a}, !- Target Object
  2;                                      !- Inlet Port

OS:PortList,
  {15ab16ec-3d5a-4896-b0d1-073c2996869f}, !- Handle
  {f7296ffe-430d-4274-866e-033c59f394e9}, !- Name
  {ffc7f32d-5f05-43c7-a309-e70c45eac9aa}, !- HVAC Component
  {6f12791d-6859-4367-8f44-b6af787d2951}; !- Port 1

OS:PortList,
  {dcd67393-fab1-4499-b058-d8293d4e6526}, !- Handle
  {7e61c9a2-0ea9-4cc7-897b-bbba05f28b91}, !- Name
  {ffc7f32d-5f05-43c7-a309-e70c45eac9aa}, !- HVAC Component
  {2a3c4f86-c952-4018-8652-32a6e5366fd7}; !- Port 1

OS:Sizing:Zone,
  {14c81d02-d798-4999-8d07-6be7e7e28b87}, !- Handle
  {ffc7f32d-5f05-43c7-a309-e70c45eac9aa}, !- Zone or ZoneList Name
  SupplyAirTemperature,                   !- Zone Cooling Design Supply Air Temperature Input Method
  14,                                     !- Zone Cooling Design Supply Air Temperature {C}
  11.11,                                  !- Zone Cooling Design Supply Air Temperature Difference {deltaC}
  SupplyAirTemperature,                   !- Zone Heating Design Supply Air Temperature Input Method
  50,                                     !- Zone Heating Design Supply Air Temperature {C}
  11.11,                                  !- Zone Heating Design Supply Air Temperature Difference {deltaC}
  0.008,                                  !- Zone Cooling Design Supply Air Humidity Ratio {kg-H2O/kg-air}
  0.008,                                  !- Zone Heating Design Supply Air Humidity Ratio {kg-H2O/kg-air}
  ,                                       !- Zone Heating Sizing Factor
  ,                                       !- Zone Cooling Sizing Factor
  DesignDay,                              !- Cooling Design Air Flow Method
  ,                                       !- Cooling Design Air Flow Rate {m3/s}
  ,                                       !- Cooling Minimum Air Flow per Zone Floor Area {m3/s-m2}
  ,                                       !- Cooling Minimum Air Flow {m3/s}
  ,                                       !- Cooling Minimum Air Flow Fraction
  DesignDay,                              !- Heating Design Air Flow Method
  ,                                       !- Heating Design Air Flow Rate {m3/s}
  ,                                       !- Heating Maximum Air Flow per Zone Floor Area {m3/s-m2}
  ,                                       !- Heating Maximum Air Flow {m3/s}
  ,                                       !- Heating Maximum Air Flow Fraction
  ,                                       !- Design Zone Air Distribution Effectiveness in Cooling Mode
  ,                                       !- Design Zone Air Distribution Effectiveness in Heating Mode
  No,                                     !- Account for Dedicated Outdoor Air System
  NeutralSupplyAir,                       !- Dedicated Outdoor Air System Control Strategy
  autosize,                               !- Dedicated Outdoor Air Low Setpoint Temperature for Design {C}
  autosize;                               !- Dedicated Outdoor Air High Setpoint Temperature for Design {C}

OS:ZoneHVAC:EquipmentList,
  {e7bece5a-eaa7-4068-b699-402271f66cba}, !- Handle
  Zone HVAC Equipment List 2,             !- Name
  {ffc7f32d-5f05-43c7-a309-e70c45eac9aa}, !- Thermal Zone
  {77fef75b-5ec0-4167-9ed1-d118acd73173}, !- Zone Equipment 1
  1,                                      !- Zone Equipment Cooling Sequence 1
  1;                                      !- Zone Equipment Heating or No-Load Sequence 1

OS:Space,
  {2924f7ff-3e2a-4774-9d65-a364089c5508}, !- Handle
  living space|unit 2|story 1,            !- Name
  {2a77d5c4-9488-4bc7-8b2a-c32342e09b60}, !- Space Type Name
  ,                                       !- Default Construction Set Name
  ,                                       !- Default Schedule Set Name
  -0,                                     !- Direction of Relative North {deg}
  0,                                      !- X Origin {m}
  0,                                      !- Y Origin {m}
  0,                                      !- Z Origin {m}
  ,                                       !- Building Story Name
  {ffc7f32d-5f05-43c7-a309-e70c45eac9aa}, !- Thermal Zone Name
  ,                                       !- Part of Total Floor Area
  ,                                       !- Design Specification Outdoor Air Object Name
  {e0a6d388-e74e-43f8-8357-6ad6709a45d2}; !- Building Unit Name

OS:Surface,
  {ea2e6841-db66-4aa7-8476-5cd7bfb17b66}, !- Handle
  Surface 12,                             !- Name
  Wall,                                   !- Surface Type
  ,                                       !- Construction Name
  {2924f7ff-3e2a-4774-9d65-a364089c5508}, !- Space Name
  Outdoors,                               !- Outside Boundary Condition
  ,                                       !- Outside Boundary Condition Object
  SunExposed,                             !- Sun Exposure
  WindExposed,                            !- Wind Exposure
  ,                                       !- View Factor to Ground
  ,                                       !- Number of Vertices
  12.9315688143396, 0, 2.4384,            !- X,Y,Z Vertex 1 {m}
  12.9315688143396, 0, 0,                 !- X,Y,Z Vertex 2 {m}
  6.46578440716979, 0, 0,                 !- X,Y,Z Vertex 3 {m}
  6.46578440716979, 0, 2.4384;            !- X,Y,Z Vertex 4 {m}

OS:Surface,
  {0f6f01c8-f079-488c-8e3b-aa3ec360364a}, !- Handle
  Surface 13,                             !- Name
  Wall,                                   !- Surface Type
  ,                                       !- Construction Name
  {2924f7ff-3e2a-4774-9d65-a364089c5508}, !- Space Name
  Surface,                                !- Outside Boundary Condition
  {03a281e9-a5ed-4199-aaea-66892d757003}, !- Outside Boundary Condition Object
  NoSun,                                  !- Sun Exposure
  NoWind,                                 !- Wind Exposure
  ,                                       !- View Factor to Ground
  ,                                       !- Number of Vertices
  12.9315688143396, -12.9315688143396, 2.4384, !- X,Y,Z Vertex 1 {m}
  12.9315688143396, -12.9315688143396, 0, !- X,Y,Z Vertex 2 {m}
  12.9315688143396, 0, 0,                 !- X,Y,Z Vertex 3 {m}
  12.9315688143396, 0, 2.4384;            !- X,Y,Z Vertex 4 {m}

OS:Surface,
  {73250e49-d98a-4705-81dc-a28bef85732d}, !- Handle
  Surface 14,                             !- Name
  Wall,                                   !- Surface Type
  ,                                       !- Construction Name
  {2924f7ff-3e2a-4774-9d65-a364089c5508}, !- Space Name
  Surface,                                !- Outside Boundary Condition
  {62d60a0c-b86e-45dc-9a9e-6312ce5e856f}, !- Outside Boundary Condition Object
  NoSun,                                  !- Sun Exposure
  NoWind,                                 !- Wind Exposure
  ,                                       !- View Factor to Ground
  ,                                       !- Number of Vertices
  6.46578440716979, 0, 2.4384,            !- X,Y,Z Vertex 1 {m}
  6.46578440716979, 0, 0,                 !- X,Y,Z Vertex 2 {m}
  6.46578440716979, -12.9315688143396, 0, !- X,Y,Z Vertex 3 {m}
  6.46578440716979, -12.9315688143396, 2.4384; !- X,Y,Z Vertex 4 {m}

OS:Surface,
  {df9a6059-331f-446b-8733-1ac36dfda3c3}, !- Handle
  Surface 15,                             !- Name
  Wall,                                   !- Surface Type
  ,                                       !- Construction Name
  {2924f7ff-3e2a-4774-9d65-a364089c5508}, !- Space Name
  Outdoors,                               !- Outside Boundary Condition
  ,                                       !- Outside Boundary Condition Object
  SunExposed,                             !- Sun Exposure
  WindExposed,                            !- Wind Exposure
  ,                                       !- View Factor to Ground
  ,                                       !- Number of Vertices
  6.46578440716979, -12.9315688143396, 2.4384, !- X,Y,Z Vertex 1 {m}
  6.46578440716979, -12.9315688143396, 0, !- X,Y,Z Vertex 2 {m}
  12.9315688143396, -12.9315688143396, 0, !- X,Y,Z Vertex 3 {m}
  12.9315688143396, -12.9315688143396, 2.4384; !- X,Y,Z Vertex 4 {m}

OS:Surface,
  {45045821-45e7-4228-a56c-257d1612d57e}, !- Handle
  Surface 16,                             !- Name
  Floor,                                  !- Surface Type
  ,                                       !- Construction Name
  {2924f7ff-3e2a-4774-9d65-a364089c5508}, !- Space Name
  Foundation,                             !- Outside Boundary Condition
  ,                                       !- Outside Boundary Condition Object
  NoSun,                                  !- Sun Exposure
  NoWind,                                 !- Wind Exposure
  ,                                       !- View Factor to Ground
  ,                                       !- Number of Vertices
  6.46578440716979, -12.9315688143396, 0, !- X,Y,Z Vertex 1 {m}
  6.46578440716979, 0, 0,                 !- X,Y,Z Vertex 2 {m}
  12.9315688143396, 0, 0,                 !- X,Y,Z Vertex 3 {m}
  12.9315688143396, -12.9315688143396, 0; !- X,Y,Z Vertex 4 {m}

OS:Surface,
  {3800736f-7a07-4395-a658-a0208f1d550e}, !- Handle
  Surface 17,                             !- Name
  RoofCeiling,                            !- Surface Type
  ,                                       !- Construction Name
  {2924f7ff-3e2a-4774-9d65-a364089c5508}, !- Space Name
  Surface,                                !- Outside Boundary Condition
  {89790e82-ed96-4080-9bd1-65eb2eb90ce4}, !- Outside Boundary Condition Object
  NoSun,                                  !- Sun Exposure
  NoWind,                                 !- Wind Exposure
  ,                                       !- View Factor to Ground
  ,                                       !- Number of Vertices
  12.9315688143396, -12.9315688143396, 2.4384, !- X,Y,Z Vertex 1 {m}
  12.9315688143396, 0, 2.4384,            !- X,Y,Z Vertex 2 {m}
  6.46578440716979, 0, 2.4384,            !- X,Y,Z Vertex 3 {m}
  6.46578440716979, -12.9315688143396, 2.4384; !- X,Y,Z Vertex 4 {m}

OS:ThermalZone,
  {6d5e1157-a698-4d7b-91ed-8159a9961172}, !- Handle
  living zone|unit 3,                     !- Name
  ,                                       !- Multiplier
  ,                                       !- Ceiling Height {m}
  ,                                       !- Volume {m3}
  ,                                       !- Floor Area {m2}
  ,                                       !- Zone Inside Convection Algorithm
  ,                                       !- Zone Outside Convection Algorithm
  ,                                       !- Zone Conditioning Equipment List Name
  {bfc7116d-ee4f-4659-b027-a30ca13ac9d0}, !- Zone Air Inlet Port List
  {010edc59-4a1a-412b-bc9a-b15cbccacbc8}, !- Zone Air Exhaust Port List
  {c5b25530-1524-40ea-af50-6632888aee51}, !- Zone Air Node Name
  ,                                       !- Zone Return Air Node Name