!- NOTE: Auto-generated from /test/osw_files/SFA_4units_1story_SL_UA_3Beds_2Baths_Denver_ASHP.osw

OS:Version,
  {3c17c0f2-8c81-4abb-a089-8e497db1d60a}, !- Handle
  2.6.0;                                  !- Version Identifier

OS:Building,
  {b672cbc9-1fcc-48a9-b423-849c5974bc01}, !- Handle
  Building 1,                             !- Name
  ,                                       !- Building Sector Type
  0,                                      !- North Axis {deg}
  ,                                       !- Nominal Floor to Floor Height {m}
  ,                                       !- Space Type Name
  ,                                       !- Default Construction Set Name
  ,                                       !- Default Schedule Set Name
  1,                                      !- Standards Number of Stories
  1,                                      !- Standards Number of Above Ground Stories
  singlefamilyattached,                   !- Standards Building Type
  4;                                      !- Standards Number of Living Units

OS:Facility,
  {9d187924-9e88-4c66-b2f1-d7cbca92834a}; !- Handle

OS:Site,
  {de433a1b-ea81-4485-9481-08fec78575ed}, !- Handle
  Denver Intl Ap_CO_USA,                  !- Name
  39.83,                                  !- Latitude {deg}
  -104.65,                                !- Longitude {deg}
  -7,                                     !- Time Zone {hr}
  1650,                                   !- Elevation {m}
  ;                                       !- Terrain

OS:SimulationControl,
  {61899461-3dad-444d-97aa-2d1169e8dc0f}, !- Handle
  ,                                       !- Do Zone Sizing Calculation
  ,                                       !- Do System Sizing Calculation
  ,                                       !- Do Plant Sizing Calculation
  No;                                     !- Run Simulation for Sizing Periods

OS:Sizing:Parameters,
  {1f239792-22c0-4e4a-8628-46b37facbaeb}, !- Handle
  1.25,                                   !- Heating Sizing Factor
  1.15;                                   !- Cooling Sizing Factor

OS:Timestep,
  {70463982-22a7-46fd-a292-525b5d99a533}, !- Handle
  6;                                      !- Number of Timesteps per Hour

OS:ShadowCalculation,
  {57d8a989-f6d7-4570-962d-b7739804af0e}, !- Handle
  20,                                     !- Calculation Frequency
  200;                                    !- Maximum Figures in Shadow Overlap Calculations

OS:HeatBalanceAlgorithm,
  {a9fee6c8-5739-466f-a4b2-d0fe06c6bdcb}, !- Handle
  ConductionTransferFunction,             !- Algorithm
  200;                                    !- Surface Temperature Upper Limit {C}

OS:RunPeriod,
  {e31eaa2e-4663-4211-97b0-26a6c3043b98}, !- Handle
  Run Period 1,                           !- Name
  1,                                      !- Begin Month
  1,                                      !- Begin Day of Month
  12,                                     !- End Month
  31,                                     !- End Day of Month
  ,                                       !- Use Weather File Holidays and Special Days
  ,                                       !- Use Weather File Daylight Saving Period
  ,                                       !- Apply Weekend Holiday Rule
  ,                                       !- Use Weather File Rain Indicators
  ,                                       !- Use Weather File Snow Indicators
  ;                                       !- Number of Times Runperiod to be Repeated

OS:LifeCycleCost:Parameters,
  {634e3d60-fb1e-4f78-bfb0-dd9d3ce8b9e6}, !- Handle
  ,                                       !- Analysis Type
  ,                                       !- Discounting Convention
  ,                                       !- Inflation Approach
  ,                                       !- Real Discount Rate
  ,                                       !- Nominal Discount Rate
  ,                                       !- Inflation
  ,                                       !- Base Date Month
  ,                                       !- Base Date Year
  ,                                       !- Service Date Month
  ,                                       !- Service Date Year
  ;                                       !- Length of Study Period in Years

OS:SurfaceConvectionAlgorithm:Outside,
  {dcbe1f23-48b8-494b-97a0-f887f5c3f979}, !- Handle
  DOE-2;                                  !- Algorithm

OS:SurfaceConvectionAlgorithm:Inside,
  {c43473c8-2702-4ee3-8491-3534dbf291f9}, !- Handle
  TARP;                                   !- Algorithm

OS:ZoneCapacitanceMultiplier:ResearchSpecial,
  {3d8ed63e-2740-4045-abe5-eda6c543058e}, !- Handle
  ,                                       !- Temperature Capacity Multiplier
  15,                                     !- Humidity Capacity Multiplier
  ;                                       !- Carbon Dioxide Capacity Multiplier

OS:ThermalZone,
  {4ad29a07-d6aa-4302-bd7f-c75b9fb86f81}, !- Handle
  living zone,                            !- Name
  ,                                       !- Multiplier
  ,                                       !- Ceiling Height {m}
  ,                                       !- Volume {m3}
  ,                                       !- Floor Area {m2}
  ,                                       !- Zone Inside Convection Algorithm
  ,                                       !- Zone Outside Convection Algorithm
  ,                                       !- Zone Conditioning Equipment List Name
  {784caf8b-43e7-42c2-b2de-79f6d2f5d9c6}, !- Zone Air Inlet Port List
  {df1d736b-097a-491c-8b1b-3882c776ce54}, !- Zone Air Exhaust Port List
  {94d0b606-0899-406a-b430-e09ef7ad7cb6}, !- Zone Air Node Name
  {d526884b-18da-4e40-a92b-51aaf6c5328e}, !- Zone Return Air Node Name
  ,                                       !- Primary Daylighting Control Name
  ,                                       !- Fraction of Zone Controlled by Primary Daylighting Control
  ,                                       !- Secondary Daylighting Control Name
  ,                                       !- Fraction of Zone Controlled by Secondary Daylighting Control
  ,                                       !- Illuminance Map Name
  ,                                       !- Group Rendering Name
  {c974c739-4e80-4734-b884-d1d843df79fa}, !- Thermostat Name
  No;                                     !- Use Ideal Air Loads

OS:Node,
  {6f86296b-1caa-494c-84c8-5f9f734e08e4}, !- Handle
  Node 1,                                 !- Name
  {94d0b606-0899-406a-b430-e09ef7ad7cb6}, !- Inlet Port
  ;                                       !- Outlet Port

OS:Connection,
  {94d0b606-0899-406a-b430-e09ef7ad7cb6}, !- Handle
  {18a88305-4ebb-46bf-975d-de5fd722c9c3}, !- Name
  {4ad29a07-d6aa-4302-bd7f-c75b9fb86f81}, !- Source Object
  11,                                     !- Outlet Port
  {6f86296b-1caa-494c-84c8-5f9f734e08e4}, !- Target Object
  2;                                      !- Inlet Port

OS:PortList,
  {784caf8b-43e7-42c2-b2de-79f6d2f5d9c6}, !- Handle
  {52b49702-aed1-4d22-8f45-c7aeea3e4c91}, !- Name
  {4ad29a07-d6aa-4302-bd7f-c75b9fb86f81}, !- HVAC Component
  {59f84d88-2f24-4ab3-b273-6c02d3231e2d}; !- Port 1

OS:PortList,
  {df1d736b-097a-491c-8b1b-3882c776ce54}, !- Handle
  {3431bdfd-9152-4e46-a0c9-bddbfe8e7fe7}, !- Name
  {4ad29a07-d6aa-4302-bd7f-c75b9fb86f81}; !- HVAC Component

OS:Sizing:Zone,
  {afbf29f2-9b51-4dae-8998-1043c177bf90}, !- Handle
  {4ad29a07-d6aa-4302-bd7f-c75b9fb86f81}, !- Zone or ZoneList Name
  SupplyAirTemperature,                   !- Zone Cooling Design Supply Air Temperature Input Method
  14,                                     !- Zone Cooling Design Supply Air Temperature {C}
  11.11,                                  !- Zone Cooling Design Supply Air Temperature Difference {deltaC}
  SupplyAirTemperature,                   !- Zone Heating Design Supply Air Temperature Input Method
  40,                                     !- Zone Heating Design Supply Air Temperature {C}
  11.11,                                  !- Zone Heating Design Supply Air Temperature Difference {deltaC}
  0.0085,                                 !- Zone Cooling Design Supply Air Humidity Ratio {kg-H2O/kg-air}
  0.008,                                  !- Zone Heating Design Supply Air Humidity Ratio {kg-H2O/kg-air}
  ,                                       !- Zone Heating Sizing Factor
  ,                                       !- Zone Cooling Sizing Factor
  DesignDay,                              !- Cooling Design Air Flow Method
  ,                                       !- Cooling Design Air Flow Rate {m3/s}
  ,                                       !- Cooling Minimum Air Flow per Zone Floor Area {m3/s-m2}
  ,                                       !- Cooling Minimum Air Flow {m3/s}
  ,                                       !- Cooling Minimum Air Flow Fraction
  DesignDay,                              !- Heating Design Air Flow Method
  ,                                       !- Heating Design Air Flow Rate {m3/s}
  ,                                       !- Heating Maximum Air Flow per Zone Floor Area {m3/s-m2}
  ,                                       !- Heating Maximum Air Flow {m3/s}
  ,                                       !- Heating Maximum Air Flow Fraction
  ,                                       !- Design Zone Air Distribution Effectiveness in Cooling Mode
  ,                                       !- Design Zone Air Distribution Effectiveness in Heating Mode
  No,                                     !- Account for Dedicated Outdoor Air System
  NeutralSupplyAir,                       !- Dedicated Outdoor Air System Control Strategy
  autosize,                               !- Dedicated Outdoor Air Low Setpoint Temperature for Design {C}
  autosize;                               !- Dedicated Outdoor Air High Setpoint Temperature for Design {C}

OS:ZoneHVAC:EquipmentList,
  {ba79425c-f1b4-4f15-98b5-903312395e66}, !- Handle
  Zone HVAC Equipment List 1,             !- Name
  {4ad29a07-d6aa-4302-bd7f-c75b9fb86f81}, !- Thermal Zone
  {17e77f18-3183-4040-aef2-95eb9f9779fe}, !- Zone Equipment 1
  1,                                      !- Zone Equipment Cooling Sequence 1
  1;                                      !- Zone Equipment Heating or No-Load Sequence 1

OS:Space,
  {0a4cf435-2c3b-446c-bcec-1032d4a96dc4}, !- Handle
  living space,                           !- Name
  {8262df9e-7a95-4178-9f23-f37278dcdae2}, !- Space Type Name
  ,                                       !- Default Construction Set Name
  ,                                       !- Default Schedule Set Name
  ,                                       !- Direction of Relative North {deg}
  ,                                       !- X Origin {m}
  ,                                       !- Y Origin {m}
  ,                                       !- Z Origin {m}
  ,                                       !- Building Story Name
  {4ad29a07-d6aa-4302-bd7f-c75b9fb86f81}, !- Thermal Zone Name
  ,                                       !- Part of Total Floor Area
  ,                                       !- Design Specification Outdoor Air Object Name
  {8697974c-7b85-4b9a-9cbb-f573f6e1eaec}; !- Building Unit Name

OS:Surface,
  {8ae135db-ac78-4c2e-86af-6d7f40564299}, !- Handle
  Surface 1,                              !- Name
  Floor,                                  !- Surface Type
  ,                                       !- Construction Name
  {0a4cf435-2c3b-446c-bcec-1032d4a96dc4}, !- Space Name
  Foundation,                             !- Outside Boundary Condition
  ,                                       !- Outside Boundary Condition Object
  NoSun,                                  !- Sun Exposure
  NoWind,                                 !- Wind Exposure
  ,                                       !- View Factor to Ground
  ,                                       !- Number of Vertices
  0, -12.9315688143396, 0,                !- X,Y,Z Vertex 1 {m}
  0, 0, 0,                                !- X,Y,Z Vertex 2 {m}
  6.46578440716979, 0, 0,                 !- X,Y,Z Vertex 3 {m}
  6.46578440716979, -12.9315688143396, 0; !- X,Y,Z Vertex 4 {m}

OS:Surface,
  {f194a894-6c77-4147-810c-13fbc33fe020}, !- Handle
  Surface 2,                              !- Name
  Wall,                                   !- Surface Type
  ,                                       !- Construction Name
  {0a4cf435-2c3b-446c-bcec-1032d4a96dc4}, !- Space Name
  Outdoors,                               !- Outside Boundary Condition
  ,                                       !- Outside Boundary Condition Object
  SunExposed,                             !- Sun Exposure
  WindExposed,                            !- Wind Exposure
  ,                                       !- View Factor to Ground
  ,                                       !- Number of Vertices
  0, 0, 2.4384,                           !- X,Y,Z Vertex 1 {m}
  0, 0, 0,                                !- X,Y,Z Vertex 2 {m}
  0, -12.9315688143396, 0,                !- X,Y,Z Vertex 3 {m}
  0, -12.9315688143396, 2.4384;           !- X,Y,Z Vertex 4 {m}

OS:Surface,
  {488230fe-94d0-495d-8919-d8aaf75db55b}, !- Handle
  Surface 3,                              !- Name
  Wall,                                   !- Surface Type
  ,                                       !- Construction Name
  {0a4cf435-2c3b-446c-bcec-1032d4a96dc4}, !- Space Name
  Outdoors,                               !- Outside Boundary Condition
  ,                                       !- Outside Boundary Condition Object
  SunExposed,                             !- Sun Exposure
  WindExposed,                            !- Wind Exposure
  ,                                       !- View Factor to Ground
  ,                                       !- Number of Vertices
  6.46578440716979, 0, 2.4384,            !- X,Y,Z Vertex 1 {m}
  6.46578440716979, 0, 0,                 !- X,Y,Z Vertex 2 {m}
  0, 0, 0,                                !- X,Y,Z Vertex 3 {m}
  0, 0, 2.4384;                           !- X,Y,Z Vertex 4 {m}

OS:Surface,
  {092748e4-346f-4154-93c5-24c5530bd2ba}, !- Handle
  Surface 4,                              !- Name
  Wall,                                   !- Surface Type
  ,                                       !- Construction Name
  {0a4cf435-2c3b-446c-bcec-1032d4a96dc4}, !- Space Name
  Surface,                                !- Outside Boundary Condition
  {f744c3ef-05c7-4394-b6ab-85a91414e841}, !- Outside Boundary Condition Object
  NoSun,                                  !- Sun Exposure
  NoWind,                                 !- Wind Exposure
  ,                                       !- View Factor to Ground
  ,                                       !- Number of Vertices
  6.46578440716979, -12.9315688143396, 2.4384, !- X,Y,Z Vertex 1 {m}
  6.46578440716979, -12.9315688143396, 0, !- X,Y,Z Vertex 2 {m}
  6.46578440716979, 0, 0,                 !- X,Y,Z Vertex 3 {m}
  6.46578440716979, 0, 2.4384;            !- X,Y,Z Vertex 4 {m}

OS:Surface,
  {fe0c313b-c73e-4803-81aa-89943fa0c610}, !- Handle
  Surface 5,                              !- Name
  Wall,                                   !- Surface Type
  ,                                       !- Construction Name
  {0a4cf435-2c3b-446c-bcec-1032d4a96dc4}, !- Space Name
  Outdoors,                               !- Outside Boundary Condition
  ,                                       !- Outside Boundary Condition Object
  SunExposed,                             !- Sun Exposure
  WindExposed,                            !- Wind Exposure
  ,                                       !- View Factor to Ground
  ,                                       !- Number of Vertices
  0, -12.9315688143396, 2.4384,           !- X,Y,Z Vertex 1 {m}
  0, -12.9315688143396, 0,                !- X,Y,Z Vertex 2 {m}
  6.46578440716979, -12.9315688143396, 0, !- X,Y,Z Vertex 3 {m}
  6.46578440716979, -12.9315688143396, 2.4384; !- X,Y,Z Vertex 4 {m}

OS:Surface,
  {3f11b98d-aa38-43e0-bd4d-47b9f298fc53}, !- Handle
  Surface 6,                              !- Name
  RoofCeiling,                            !- Surface Type
  ,                                       !- Construction Name
  {0a4cf435-2c3b-446c-bcec-1032d4a96dc4}, !- Space Name
  Surface,                                !- Outside Boundary Condition
  {df709486-f859-40dd-9981-62ed5f77d8f1}, !- Outside Boundary Condition Object
  NoSun,                                  !- Sun Exposure
  NoWind,                                 !- Wind Exposure
  ,                                       !- View Factor to Ground
  ,                                       !- Number of Vertices
  6.46578440716979, -12.9315688143396, 2.4384, !- X,Y,Z Vertex 1 {m}
  6.46578440716979, 0, 2.4384,            !- X,Y,Z Vertex 2 {m}
  0, 0, 2.4384,                           !- X,Y,Z Vertex 3 {m}
  0, -12.9315688143396, 2.4384;           !- X,Y,Z Vertex 4 {m}

OS:SpaceType,
  {8262df9e-7a95-4178-9f23-f37278dcdae2}, !- Handle
  Space Type 1,                           !- Name
  ,                                       !- Default Construction Set Name
  ,                                       !- Default Schedule Set Name
  ,                                       !- Group Rendering Name
  ,                                       !- Design Specification Outdoor Air Object Name
  ,                                       !- Standards Building Type
  living;                                 !- Standards Space Type

OS:ThermalZone,
  {cda51250-27c3-44d5-9a5e-df68cb5bd6e0}, !- Handle
  living zone|unit 2,                     !- Name
  ,                                       !- Multiplier
  ,                                       !- Ceiling Height {m}
  ,                                       !- Volume {m3}
  ,                                       !- Floor Area {m2}
  ,                                       !- Zone Inside Convection Algorithm
  ,                                       !- Zone Outside Convection Algorithm
  ,                                       !- Zone Conditioning Equipment List Name
  {483f103c-781c-470c-97b6-984d6857e1b9}, !- Zone Air Inlet Port List
  {acf917f8-53f1-4220-85db-a15326b92b82}, !- Zone Air Exhaust Port List
  {c0a89e6c-b317-4bf2-b65b-28ec0bae6fce}, !- Zone Air Node Name
  {14a2844b-5c35-4e29-89c6-1ad1b7604296}, !- Zone Return Air Node Name
  ,                                       !- Primary Daylighting Control Name
  ,                                       !- Fraction of Zone Controlled by Primary Daylighting Control
  ,                                       !- Secondary Daylighting Control Name
  ,                                       !- Fraction of Zone Controlled by Secondary Daylighting Control
  ,                                       !- Illuminance Map Name
  ,                                       !- Group Rendering Name
  {8c2bba23-5edc-4fc7-a613-8466256ad323}, !- Thermostat Name
  No;                                     !- Use Ideal Air Loads

OS:Node,
  {88e559b8-77a7-46cd-8e58-0798c3ee9fa0}, !- Handle
  Node 2,                                 !- Name
  {c0a89e6c-b317-4bf2-b65b-28ec0bae6fce}, !- Inlet Port
  ;                                       !- Outlet Port

OS:Connection,
  {c0a89e6c-b317-4bf2-b65b-28ec0bae6fce}, !- Handle
  {e0a2650a-bb37-41a8-b573-c790310c252a}, !- Name
  {cda51250-27c3-44d5-9a5e-df68cb5bd6e0}, !- Source Object
  11,                                     !- Outlet Port
  {88e559b8-77a7-46cd-8e58-0798c3ee9fa0}, !- Target Object
  2;                                      !- Inlet Port

OS:PortList,
  {483f103c-781c-470c-97b6-984d6857e1b9}, !- Handle
  {179506c3-2392-40ba-a63e-f25b2c90d38a}, !- Name
  {cda51250-27c3-44d5-9a5e-df68cb5bd6e0}, !- HVAC Component
  {2e39ab96-a24a-41dd-8ad4-1c083f39d914}; !- Port 1

OS:PortList,
  {acf917f8-53f1-4220-85db-a15326b92b82}, !- Handle
  {762e3c90-9d38-4f94-912b-662ea6f4199e}, !- Name
  {cda51250-27c3-44d5-9a5e-df68cb5bd6e0}; !- HVAC Component

OS:Sizing:Zone,
  {6259704f-d2e0-4a6b-b42d-4cd6fd12e809}, !- Handle
  {cda51250-27c3-44d5-9a5e-df68cb5bd6e0}, !- Zone or ZoneList Name
  SupplyAirTemperature,                   !- Zone Cooling Design Supply Air Temperature Input Method
  14,                                     !- Zone Cooling Design Supply Air Temperature {C}
  11.11,                                  !- Zone Cooling Design Supply Air Temperature Difference {deltaC}
  SupplyAirTemperature,                   !- Zone Heating Design Supply Air Temperature Input Method
  40,                                     !- Zone Heating Design Supply Air Temperature {C}
  11.11,                                  !- Zone Heating Design Supply Air Temperature Difference {deltaC}
  0.0085,                                 !- Zone Cooling Design Supply Air Humidity Ratio {kg-H2O/kg-air}
  0.008,                                  !- Zone Heating Design Supply Air Humidity Ratio {kg-H2O/kg-air}
  ,                                       !- Zone Heating Sizing Factor
  ,                                       !- Zone Cooling Sizing Factor
  DesignDay,                              !- Cooling Design Air Flow Method
  ,                                       !- Cooling Design Air Flow Rate {m3/s}
  ,                                       !- Cooling Minimum Air Flow per Zone Floor Area {m3/s-m2}
  ,                                       !- Cooling Minimum Air Flow {m3/s}
  ,                                       !- Cooling Minimum Air Flow Fraction
  DesignDay,                              !- Heating Design Air Flow Method
  ,                                       !- Heating Design Air Flow Rate {m3/s}
  ,                                       !- Heating Maximum Air Flow per Zone Floor Area {m3/s-m2}
  ,                                       !- Heating Maximum Air Flow {m3/s}
  ,                                       !- Heating Maximum Air Flow Fraction
  ,                                       !- Design Zone Air Distribution Effectiveness in Cooling Mode
  ,                                       !- Design Zone Air Distribution Effectiveness in Heating Mode
  No,                                     !- Account for Dedicated Outdoor Air System
  NeutralSupplyAir,                       !- Dedicated Outdoor Air System Control Strategy
  autosize,                               !- Dedicated Outdoor Air Low Setpoint Temperature for Design {C}
  autosize;                               !- Dedicated Outdoor Air High Setpoint Temperature for Design {C}

OS:ZoneHVAC:EquipmentList,
  {a1eb6d00-576e-4a58-a7c7-4ed7a8aa9909}, !- Handle
  Zone HVAC Equipment List 2,             !- Name
  {cda51250-27c3-44d5-9a5e-df68cb5bd6e0}, !- Thermal Zone
  {ed0cd517-887e-4b75-9162-dc13a7347941}, !- Zone Equipment 1
  1,                                      !- Zone Equipment Cooling Sequence 1
  1;                                      !- Zone Equipment Heating or No-Load Sequence 1

OS:Space,
  {6b062991-4a4b-4710-8fd3-f267be37b8e4}, !- Handle
  living space|unit 2|story 1,            !- Name
  {8262df9e-7a95-4178-9f23-f37278dcdae2}, !- Space Type Name
  ,                                       !- Default Construction Set Name
  ,                                       !- Default Schedule Set Name
  -0,                                     !- Direction of Relative North {deg}
  0,                                      !- X Origin {m}
  0,                                      !- Y Origin {m}
  0,                                      !- Z Origin {m}
  ,                                       !- Building Story Name
  {cda51250-27c3-44d5-9a5e-df68cb5bd6e0}, !- Thermal Zone Name
  ,                                       !- Part of Total Floor Area
  ,                                       !- Design Specification Outdoor Air Object Name
  {d6af2cb2-7987-42ed-8834-faa6c3ae0287}; !- Building Unit Name

OS:Surface,
  {c1fb1420-958d-483c-94a9-248100151de8}, !- Handle
  Surface 12,                             !- Name
  RoofCeiling,                            !- Surface Type
  ,                                       !- Construction Name
  {6b062991-4a4b-4710-8fd3-f267be37b8e4}, !- Space Name
  Surface,                                !- Outside Boundary Condition
  {8fff8704-54df-4481-b349-a04131d30248}, !- Outside Boundary Condition Object
  NoSun,                                  !- Sun Exposure
  NoWind,                                 !- Wind Exposure
  ,                                       !- View Factor to Ground
  ,                                       !- Number of Vertices
  12.9315688143396, -12.9315688143396, 2.4384, !- X,Y,Z Vertex 1 {m}
  12.9315688143396, 0, 2.4384,            !- X,Y,Z Vertex 2 {m}
  6.46578440716979, 0, 2.4384,            !- X,Y,Z Vertex 3 {m}
  6.46578440716979, -12.9315688143396, 2.4384; !- X,Y,Z Vertex 4 {m}

OS:Surface,
  {887c5a54-063c-49fa-ae56-01c4761653b0}, !- Handle
  Surface 13,                             !- Name
  Wall,                                   !- Surface Type
  ,                                       !- Construction Name
  {6b062991-4a4b-4710-8fd3-f267be37b8e4}, !- Space Name
  Outdoors,                               !- Outside Boundary Condition
  ,                                       !- Outside Boundary Condition Object
  SunExposed,                             !- Sun Exposure
  WindExposed,                            !- Wind Exposure
  ,                                       !- View Factor to Ground
  ,                                       !- Number of Vertices
  12.9315688143396, 0, 2.4384,            !- X,Y,Z Vertex 1 {m}
  12.9315688143396, 0, 0,                 !- X,Y,Z Vertex 2 {m}
  6.46578440716979, 0, 0,                 !- X,Y,Z Vertex 3 {m}
  6.46578440716979, 0, 2.4384;            !- X,Y,Z Vertex 4 {m}

OS:Surface,
  {a72084a5-a685-462c-93b1-293349bfcb28}, !- Handle
  Surface 14,                             !- Name
  Wall,                                   !- Surface Type
  ,                                       !- Construction Name
  {6b062991-4a4b-4710-8fd3-f267be37b8e4}, !- Space Name
  Surface,                                !- Outside Boundary Condition
  {2c3e4dcb-e919-4120-a977-846b5f970dd7}, !- Outside Boundary Condition Object
  NoSun,                                  !- Sun Exposure
  NoWind,                                 !- Wind Exposure
  ,                                       !- View Factor to Ground
  ,                                       !- Number of Vertices
  12.9315688143396, -12.9315688143396, 2.4384, !- X,Y,Z Vertex 1 {m}
  12.9315688143396, -12.9315688143396, 0, !- X,Y,Z Vertex 2 {m}
  12.9315688143396, 0, 0,                 !- X,Y,Z Vertex 3 {m}
  12.9315688143396, 0, 2.4384;            !- X,Y,Z Vertex 4 {m}

OS:Surface,
  {880d2d61-6f21-4e9a-a69c-e124d6d8c9db}, !- Handle
  Surface 15,                             !- Name
  Wall,                                   !- Surface Type
  ,                                       !- Construction Name
  {6b062991-4a4b-4710-8fd3-f267be37b8e4}, !- Space Name
  Outdoors,                               !- Outside Boundary Condition
  ,                                       !- Outside Boundary Condition Object
  SunExposed,                             !- Sun Exposure
  WindExposed,                            !- Wind Exposure
  ,                                       !- View Factor to Ground
  ,                                       !- Number of Vertices
  6.46578440716979, -12.9315688143396, 2.4384, !- X,Y,Z Vertex 1 {m}
  6.46578440716979, -12.9315688143396, 0, !- X,Y,Z Vertex 2 {m}
  12.9315688143396, -12.9315688143396, 0, !- X,Y,Z Vertex 3 {m}
  12.9315688143396, -12.9315688143396, 2.4384; !- X,Y,Z Vertex 4 {m}

OS:Surface,
  {2a4bdd8d-e4bb-4772-8779-d3ef65011de0}, !- Handle
  Surface 16,                             !- Name
  Floor,                                  !- Surface Type
  ,                                       !- Construction Name
  {6b062991-4a4b-4710-8fd3-f267be37b8e4}, !- Space Name
  Foundation,                             !- Outside Boundary Condition
  ,                                       !- Outside Boundary Condition Object
  NoSun,                                  !- Sun Exposure
  NoWind,                                 !- Wind Exposure
  ,                                       !- View Factor to Ground
  ,                                       !- Number of Vertices
  6.46578440716979, -12.9315688143396, 0, !- X,Y,Z Vertex 1 {m}
  6.46578440716979, 0, 0,                 !- X,Y,Z Vertex 2 {m}
  12.9315688143396, 0, 0,                 !- X,Y,Z Vertex 3 {m}
  12.9315688143396, -12.9315688143396, 0; !- X,Y,Z Vertex 4 {m}

OS:Surface,
  {f744c3ef-05c7-4394-b6ab-85a91414e841}, !- Handle
  Surface 17,                             !- Name
  Wall,                                   !- Surface Type
  ,                                       !- Construction Name
  {6b062991-4a4b-4710-8fd3-f267be37b8e4}, !- Space Name
  Surface,                                !- Outside Boundary Condition
  {092748e4-346f-4154-93c5-24c5530bd2ba}, !- Outside Boundary Condition Object
  NoSun,                                  !- Sun Exposure
  NoWind,                                 !- Wind Exposure
  ,                                       !- View Factor to Ground
  ,                                       !- Number of Vertices
  6.46578440716979, 0, 2.4384,            !- X,Y,Z Vertex 1 {m}
  6.46578440716979, 0, 0,                 !- X,Y,Z Vertex 2 {m}
  6.46578440716979, -12.9315688143396, 0, !- X,Y,Z Vertex 3 {m}
  6.46578440716979, -12.9315688143396, 2.4384; !- X,Y,Z Vertex 4 {m}

OS:ThermalZone,
  {f6b1dcc1-e85a-4419-802d-74a23779175c}, !- Handle
  living zone|unit 3,                     !- Name
  ,                                       !- Multiplier
  ,                                       !- Ceiling Height {m}
  ,                                       !- Volume {m3}
  ,                                       !- Floor Area {m2}