!- NOTE: Auto-generated from /test/osw_files/SFA_4units_1story_SL_UA_3Beds_2Baths_Denver_GSHPVertBore.osw

OS:Version,
  {7ca64be2-41df-4ba4-8ad6-cd8fef147078}, !- Handle
  2.6.0;                                  !- Version Identifier

OS:Building,
  {2c814a74-1a8c-4b11-9d2d-e47a3f7aafba}, !- Handle
  Building 1,                             !- Name
  ,                                       !- Building Sector Type
  0,                                      !- North Axis {deg}
  ,                                       !- Nominal Floor to Floor Height {m}
  ,                                       !- Space Type Name
  ,                                       !- Default Construction Set Name
  ,                                       !- Default Schedule Set Name
  1,                                      !- Standards Number of Stories
  1,                                      !- Standards Number of Above Ground Stories
  singlefamilyattached,                   !- Standards Building Type
  4;                                      !- Standards Number of Living Units

OS:Facility,
  {cfffdc19-d754-4b9e-be7d-d175ad3ca455}; !- Handle

OS:Site,
  {0f39879d-6b1f-43ff-ac55-5575d7f42438}, !- Handle
  Denver Intl Ap_CO_USA,                  !- Name
  39.83,                                  !- Latitude {deg}
  -104.65,                                !- Longitude {deg}
  -7,                                     !- Time Zone {hr}
  1650,                                   !- Elevation {m}
  ;                                       !- Terrain

OS:SimulationControl,
  {301c0154-d4e3-4f48-b52f-3d8cbf860d62}, !- Handle
  ,                                       !- Do Zone Sizing Calculation
  ,                                       !- Do System Sizing Calculation
  ,                                       !- Do Plant Sizing Calculation
  No;                                     !- Run Simulation for Sizing Periods

OS:Sizing:Parameters,
  {4e3d34e3-eb16-4508-a162-5290d87438bc}, !- Handle
  1.25,                                   !- Heating Sizing Factor
  1.15;                                   !- Cooling Sizing Factor

OS:Timestep,
  {304cf549-7992-4701-aa82-68aa4ab36316}, !- Handle
  6;                                      !- Number of Timesteps per Hour

OS:ShadowCalculation,
  {836b4d44-174b-4a5b-ba65-58570ff85da9}, !- Handle
  20,                                     !- Calculation Frequency
  200;                                    !- Maximum Figures in Shadow Overlap Calculations

OS:HeatBalanceAlgorithm,
  {f3be0239-1553-42b1-b52d-2bba147b5c04}, !- Handle
  ConductionTransferFunction,             !- Algorithm
  200;                                    !- Surface Temperature Upper Limit {C}

OS:RunPeriod,
  {98acb3c1-17ed-44f9-be00-3d720ad65132}, !- Handle
  Run Period 1,                           !- Name
  1,                                      !- Begin Month
  1,                                      !- Begin Day of Month
  12,                                     !- End Month
  31,                                     !- End Day of Month
  ,                                       !- Use Weather File Holidays and Special Days
  ,                                       !- Use Weather File Daylight Saving Period
  ,                                       !- Apply Weekend Holiday Rule
  ,                                       !- Use Weather File Rain Indicators
  ,                                       !- Use Weather File Snow Indicators
  ;                                       !- Number of Times Runperiod to be Repeated

OS:LifeCycleCost:Parameters,
  {98a3f002-0eb3-4bf8-8274-182c071d9c49}, !- Handle
  ,                                       !- Analysis Type
  ,                                       !- Discounting Convention
  ,                                       !- Inflation Approach
  ,                                       !- Real Discount Rate
  ,                                       !- Nominal Discount Rate
  ,                                       !- Inflation
  ,                                       !- Base Date Month
  ,                                       !- Base Date Year
  ,                                       !- Service Date Month
  ,                                       !- Service Date Year
  ;                                       !- Length of Study Period in Years

OS:SurfaceConvectionAlgorithm:Outside,
  {d0ca2161-79e1-434f-ad8f-598022ba881e}, !- Handle
  DOE-2;                                  !- Algorithm

OS:SurfaceConvectionAlgorithm:Inside,
  {898a1aa3-5aa2-466b-a5b5-0a16553a7f19}, !- Handle
  TARP;                                   !- Algorithm

OS:ZoneCapacitanceMultiplier:ResearchSpecial,
  {387b894b-08cc-404e-9194-c0073f45a97b}, !- Handle
  ,                                       !- Temperature Capacity Multiplier
  15,                                     !- Humidity Capacity Multiplier
  ;                                       !- Carbon Dioxide Capacity Multiplier

OS:ThermalZone,
  {56bcf77e-a789-4505-8018-e4035880bd1d}, !- Handle
  living zone,                            !- Name
  ,                                       !- Multiplier
  ,                                       !- Ceiling Height {m}
  ,                                       !- Volume {m3}
  ,                                       !- Floor Area {m2}
  ,                                       !- Zone Inside Convection Algorithm
  ,                                       !- Zone Outside Convection Algorithm
  ,                                       !- Zone Conditioning Equipment List Name
  {34b47d2d-c995-4a0b-beb7-1de2df9929fe}, !- Zone Air Inlet Port List
  {1d69e7ff-3889-4d83-92ad-c7b9341cf57f}, !- Zone Air Exhaust Port List
  {f1bccd0b-160a-4ffb-b5f0-73a2b67220ec}, !- Zone Air Node Name
  {60825bf7-f32a-40a7-b732-50f5d0c9254a}, !- Zone Return Air Node Name
  ,                                       !- Primary Daylighting Control Name
  ,                                       !- Fraction of Zone Controlled by Primary Daylighting Control
  ,                                       !- Secondary Daylighting Control Name
  ,                                       !- Fraction of Zone Controlled by Secondary Daylighting Control
  ,                                       !- Illuminance Map Name
  ,                                       !- Group Rendering Name
  {eda09a2e-60e1-47e3-8eb6-50db2b59188d}, !- Thermostat Name
  No;                                     !- Use Ideal Air Loads

OS:Node,
  {7ec71dd5-7558-48c1-ad52-054cc568de8c}, !- Handle
  Node 1,                                 !- Name
  {f1bccd0b-160a-4ffb-b5f0-73a2b67220ec}, !- Inlet Port
  ;                                       !- Outlet Port

OS:Connection,
  {f1bccd0b-160a-4ffb-b5f0-73a2b67220ec}, !- Handle
  {5db7b5f6-7de3-4831-accb-f7259a59b0ea}, !- Name
  {56bcf77e-a789-4505-8018-e4035880bd1d}, !- Source Object
  11,                                     !- Outlet Port
  {7ec71dd5-7558-48c1-ad52-054cc568de8c}, !- Target Object
  2;                                      !- Inlet Port

OS:PortList,
  {34b47d2d-c995-4a0b-beb7-1de2df9929fe}, !- Handle
  {0aafb1d5-e92f-4272-8175-9f047214b38c}, !- Name
  {56bcf77e-a789-4505-8018-e4035880bd1d}, !- HVAC Component
  {b077c9c8-13ef-4759-91e6-38a0f6e42673}; !- Port 1

OS:PortList,
  {1d69e7ff-3889-4d83-92ad-c7b9341cf57f}, !- Handle
  {d0576e61-9dd3-4084-9fd2-0e74527b7fec}, !- Name
  {56bcf77e-a789-4505-8018-e4035880bd1d}; !- HVAC Component

OS:Sizing:Zone,
  {4a84248c-a372-4894-90bb-6ecc5036c17c}, !- Handle
  {56bcf77e-a789-4505-8018-e4035880bd1d}, !- Zone or ZoneList Name
  SupplyAirTemperature,                   !- Zone Cooling Design Supply Air Temperature Input Method
  14,                                     !- Zone Cooling Design Supply Air Temperature {C}
  11.11,                                  !- Zone Cooling Design Supply Air Temperature Difference {deltaC}
  SupplyAirTemperature,                   !- Zone Heating Design Supply Air Temperature Input Method
  40,                                     !- Zone Heating Design Supply Air Temperature {C}
  11.11,                                  !- Zone Heating Design Supply Air Temperature Difference {deltaC}
  0.0085,                                 !- Zone Cooling Design Supply Air Humidity Ratio {kg-H2O/kg-air}
  0.008,                                  !- Zone Heating Design Supply Air Humidity Ratio {kg-H2O/kg-air}
  ,                                       !- Zone Heating Sizing Factor
  ,                                       !- Zone Cooling Sizing Factor
  DesignDay,                              !- Cooling Design Air Flow Method
  ,                                       !- Cooling Design Air Flow Rate {m3/s}
  ,                                       !- Cooling Minimum Air Flow per Zone Floor Area {m3/s-m2}
  ,                                       !- Cooling Minimum Air Flow {m3/s}
  ,                                       !- Cooling Minimum Air Flow Fraction
  DesignDay,                              !- Heating Design Air Flow Method
  ,                                       !- Heating Design Air Flow Rate {m3/s}
  ,                                       !- Heating Maximum Air Flow per Zone Floor Area {m3/s-m2}
  ,                                       !- Heating Maximum Air Flow {m3/s}
  ,                                       !- Heating Maximum Air Flow Fraction
  ,                                       !- Design Zone Air Distribution Effectiveness in Cooling Mode
  ,                                       !- Design Zone Air Distribution Effectiveness in Heating Mode
  No,                                     !- Account for Dedicated Outdoor Air System
  NeutralSupplyAir,                       !- Dedicated Outdoor Air System Control Strategy
  autosize,                               !- Dedicated Outdoor Air Low Setpoint Temperature for Design {C}
  autosize;                               !- Dedicated Outdoor Air High Setpoint Temperature for Design {C}

OS:ZoneHVAC:EquipmentList,
  {5c4a146b-7c81-4b6a-b469-91bc36c80fec}, !- Handle
  Zone HVAC Equipment List 1,             !- Name
  {56bcf77e-a789-4505-8018-e4035880bd1d}, !- Thermal Zone
  {26c58467-0238-4624-b547-a789236157c0}, !- Zone Equipment 1
  1,                                      !- Zone Equipment Cooling Sequence 1
  1;                                      !- Zone Equipment Heating or No-Load Sequence 1

OS:Space,
  {2cf9d0e8-cdc5-4348-b96c-ed60d9a43df6}, !- Handle
  living space,                           !- Name
  {a9955058-7a4e-4f3b-95a7-73e0bdca1050}, !- Space Type Name
  ,                                       !- Default Construction Set Name
  ,                                       !- Default Schedule Set Name
  ,                                       !- Direction of Relative North {deg}
  ,                                       !- X Origin {m}
  ,                                       !- Y Origin {m}
  ,                                       !- Z Origin {m}
  ,                                       !- Building Story Name
  {56bcf77e-a789-4505-8018-e4035880bd1d}, !- Thermal Zone Name
  ,                                       !- Part of Total Floor Area
  ,                                       !- Design Specification Outdoor Air Object Name
  {f45e49c9-633b-4c64-bdcc-fd66a392f6b8}; !- Building Unit Name

OS:Surface,
  {72d2dde4-2431-4d90-aba0-c1824dfbf12c}, !- Handle
  Surface 1,                              !- Name
  Floor,                                  !- Surface Type
  ,                                       !- Construction Name
  {2cf9d0e8-cdc5-4348-b96c-ed60d9a43df6}, !- Space Name
  Foundation,                             !- Outside Boundary Condition
  ,                                       !- Outside Boundary Condition Object
  NoSun,                                  !- Sun Exposure
  NoWind,                                 !- Wind Exposure
  ,                                       !- View Factor to Ground
  ,                                       !- Number of Vertices
  0, -12.9315688143396, 0,                !- X,Y,Z Vertex 1 {m}
  0, 0, 0,                                !- X,Y,Z Vertex 2 {m}
  6.46578440716979, 0, 0,                 !- X,Y,Z Vertex 3 {m}
  6.46578440716979, -12.9315688143396, 0; !- X,Y,Z Vertex 4 {m}

OS:Surface,
  {069867ec-5081-40de-a1ef-54c05e6d63b8}, !- Handle
  Surface 2,                              !- Name
  Wall,                                   !- Surface Type
  ,                                       !- Construction Name
  {2cf9d0e8-cdc5-4348-b96c-ed60d9a43df6}, !- Space Name
  Outdoors,                               !- Outside Boundary Condition
  ,                                       !- Outside Boundary Condition Object
  SunExposed,                             !- Sun Exposure
  WindExposed,                            !- Wind Exposure
  ,                                       !- View Factor to Ground
  ,                                       !- Number of Vertices
  0, 0, 2.4384,                           !- X,Y,Z Vertex 1 {m}
  0, 0, 0,                                !- X,Y,Z Vertex 2 {m}
  0, -12.9315688143396, 0,                !- X,Y,Z Vertex 3 {m}
  0, -12.9315688143396, 2.4384;           !- X,Y,Z Vertex 4 {m}

OS:Surface,
  {863b8f03-758e-429f-b34f-cc0e86a7523e}, !- Handle
  Surface 3,                              !- Name
  Wall,                                   !- Surface Type
  ,                                       !- Construction Name
  {2cf9d0e8-cdc5-4348-b96c-ed60d9a43df6}, !- Space Name
  Outdoors,                               !- Outside Boundary Condition
  ,                                       !- Outside Boundary Condition Object
  SunExposed,                             !- Sun Exposure
  WindExposed,                            !- Wind Exposure
  ,                                       !- View Factor to Ground
  ,                                       !- Number of Vertices
  6.46578440716979, 0, 2.4384,            !- X,Y,Z Vertex 1 {m}
  6.46578440716979, 0, 0,                 !- X,Y,Z Vertex 2 {m}
  0, 0, 0,                                !- X,Y,Z Vertex 3 {m}
  0, 0, 2.4384;                           !- X,Y,Z Vertex 4 {m}

OS:Surface,
  {afb73e31-c95f-492c-b809-979a7e79b4be}, !- Handle
  Surface 4,                              !- Name
  Wall,                                   !- Surface Type
  ,                                       !- Construction Name
  {2cf9d0e8-cdc5-4348-b96c-ed60d9a43df6}, !- Space Name
  Surface,                                !- Outside Boundary Condition
  {0bd9a310-09fe-4510-81db-74f53c6a8e2a}, !- Outside Boundary Condition Object
  NoSun,                                  !- Sun Exposure
  NoWind,                                 !- Wind Exposure
  ,                                       !- View Factor to Ground
  ,                                       !- Number of Vertices
  6.46578440716979, -12.9315688143396, 2.4384, !- X,Y,Z Vertex 1 {m}
  6.46578440716979, -12.9315688143396, 0, !- X,Y,Z Vertex 2 {m}
  6.46578440716979, 0, 0,                 !- X,Y,Z Vertex 3 {m}
  6.46578440716979, 0, 2.4384;            !- X,Y,Z Vertex 4 {m}

OS:Surface,
  {3858effa-ff9e-4a34-a4be-323036b88f72}, !- Handle
  Surface 5,                              !- Name
  Wall,                                   !- Surface Type
  ,                                       !- Construction Name
  {2cf9d0e8-cdc5-4348-b96c-ed60d9a43df6}, !- Space Name
  Outdoors,                               !- Outside Boundary Condition
  ,                                       !- Outside Boundary Condition Object
  SunExposed,                             !- Sun Exposure
  WindExposed,                            !- Wind Exposure
  ,                                       !- View Factor to Ground
  ,                                       !- Number of Vertices
  0, -12.9315688143396, 2.4384,           !- X,Y,Z Vertex 1 {m}
  0, -12.9315688143396, 0,                !- X,Y,Z Vertex 2 {m}
  6.46578440716979, -12.9315688143396, 0, !- X,Y,Z Vertex 3 {m}
  6.46578440716979, -12.9315688143396, 2.4384; !- X,Y,Z Vertex 4 {m}

OS:Surface,
  {95691283-66b6-4ab2-81bf-4d67e9349aa5}, !- Handle
  Surface 6,                              !- Name
  RoofCeiling,                            !- Surface Type
  ,                                       !- Construction Name
  {2cf9d0e8-cdc5-4348-b96c-ed60d9a43df6}, !- Space Name
  Surface,                                !- Outside Boundary Condition
  {9afdbbc1-2f9a-4b16-818c-39c4102f0ff9}, !- Outside Boundary Condition Object
  NoSun,                                  !- Sun Exposure
  NoWind,                                 !- Wind Exposure
  ,                                       !- View Factor to Ground
  ,                                       !- Number of Vertices
  6.46578440716979, -12.9315688143396, 2.4384, !- X,Y,Z Vertex 1 {m}
  6.46578440716979, 0, 2.4384,            !- X,Y,Z Vertex 2 {m}
  0, 0, 2.4384,                           !- X,Y,Z Vertex 3 {m}
  0, -12.9315688143396, 2.4384;           !- X,Y,Z Vertex 4 {m}

OS:SpaceType,
  {a9955058-7a4e-4f3b-95a7-73e0bdca1050}, !- Handle
  Space Type 1,                           !- Name
  ,                                       !- Default Construction Set Name
  ,                                       !- Default Schedule Set Name
  ,                                       !- Group Rendering Name
  ,                                       !- Design Specification Outdoor Air Object Name
  ,                                       !- Standards Building Type
  living;                                 !- Standards Space Type

OS:ThermalZone,
  {2b33b5e0-15ba-46d9-88b3-55a6124f14a8}, !- Handle
  living zone|unit 2,                     !- Name
  ,                                       !- Multiplier
  ,                                       !- Ceiling Height {m}
  ,                                       !- Volume {m3}
  ,                                       !- Floor Area {m2}
  ,                                       !- Zone Inside Convection Algorithm
  ,                                       !- Zone Outside Convection Algorithm
  ,                                       !- Zone Conditioning Equipment List Name
  {3d8901f8-5c6d-48ba-a818-3225189f2a58}, !- Zone Air Inlet Port List
  {86f8c4e9-bd1a-42a8-971c-d767c1c05923}, !- Zone Air Exhaust Port List
  {5dbb9430-dc24-4074-8fa7-87db87310405}, !- Zone Air Node Name
  {a8426f94-675b-4cb1-8f2b-54edd3721fb2}, !- Zone Return Air Node Name
  ,                                       !- Primary Daylighting Control Name
  ,                                       !- Fraction of Zone Controlled by Primary Daylighting Control
  ,                                       !- Secondary Daylighting Control Name
  ,                                       !- Fraction of Zone Controlled by Secondary Daylighting Control
  ,                                       !- Illuminance Map Name
  ,                                       !- Group Rendering Name
  {52dfd179-28ef-43a1-a2d6-26d8b958f03d}, !- Thermostat Name
  No;                                     !- Use Ideal Air Loads

OS:Node,
  {f47ea936-f179-408b-99f6-5ce6e05d03fb}, !- Handle
  Node 2,                                 !- Name
  {5dbb9430-dc24-4074-8fa7-87db87310405}, !- Inlet Port
  ;                                       !- Outlet Port

OS:Connection,
  {5dbb9430-dc24-4074-8fa7-87db87310405}, !- Handle
  {6afc1146-1307-4812-8d48-341f56abf273}, !- Name
  {2b33b5e0-15ba-46d9-88b3-55a6124f14a8}, !- Source Object
  11,                                     !- Outlet Port
  {f47ea936-f179-408b-99f6-5ce6e05d03fb}, !- Target Object
  2;                                      !- Inlet Port

OS:PortList,
  {3d8901f8-5c6d-48ba-a818-3225189f2a58}, !- Handle
  {902b1954-ced3-4371-9124-f69e4f3d39d2}, !- Name
  {2b33b5e0-15ba-46d9-88b3-55a6124f14a8}, !- HVAC Component
  {fcdd1cf1-84e8-4b0d-aa8c-73478a6d14af}; !- Port 1

OS:PortList,
  {86f8c4e9-bd1a-42a8-971c-d767c1c05923}, !- Handle
  {89649e1b-f76b-4df8-afad-b8f77ae8c464}, !- Name
  {2b33b5e0-15ba-46d9-88b3-55a6124f14a8}; !- HVAC Component

OS:Sizing:Zone,
  {81613986-ba24-4f93-81bf-965896cb4346}, !- Handle
  {2b33b5e0-15ba-46d9-88b3-55a6124f14a8}, !- Zone or ZoneList Name
  SupplyAirTemperature,                   !- Zone Cooling Design Supply Air Temperature Input Method
  14,                                     !- Zone Cooling Design Supply Air Temperature {C}
  11.11,                                  !- Zone Cooling Design Supply Air Temperature Difference {deltaC}
  SupplyAirTemperature,                   !- Zone Heating Design Supply Air Temperature Input Method
  40,                                     !- Zone Heating Design Supply Air Temperature {C}
  11.11,                                  !- Zone Heating Design Supply Air Temperature Difference {deltaC}
  0.0085,                                 !- Zone Cooling Design Supply Air Humidity Ratio {kg-H2O/kg-air}
  0.008,                                  !- Zone Heating Design Supply Air Humidity Ratio {kg-H2O/kg-air}
  ,                                       !- Zone Heating Sizing Factor
  ,                                       !- Zone Cooling Sizing Factor
  DesignDay,                              !- Cooling Design Air Flow Method
  ,                                       !- Cooling Design Air Flow Rate {m3/s}
  ,                                       !- Cooling Minimum Air Flow per Zone Floor Area {m3/s-m2}
  ,                                       !- Cooling Minimum Air Flow {m3/s}
  ,                                       !- Cooling Minimum Air Flow Fraction
  DesignDay,                              !- Heating Design Air Flow Method
  ,                                       !- Heating Design Air Flow Rate {m3/s}
  ,                                       !- Heating Maximum Air Flow per Zone Floor Area {m3/s-m2}
  ,                                       !- Heating Maximum Air Flow {m3/s}
  ,                                       !- Heating Maximum Air Flow Fraction
  ,                                       !- Design Zone Air Distribution Effectiveness in Cooling Mode
  ,                                       !- Design Zone Air Distribution Effectiveness in Heating Mode
  No,                                     !- Account for Dedicated Outdoor Air System
  NeutralSupplyAir,                       !- Dedicated Outdoor Air System Control Strategy
  autosize,                               !- Dedicated Outdoor Air Low Setpoint Temperature for Design {C}
  autosize;                               !- Dedicated Outdoor Air High Setpoint Temperature for Design {C}

OS:ZoneHVAC:EquipmentList,
  {bc4dfb82-9bae-4992-b371-d96907948921}, !- Handle
  Zone HVAC Equipment List 2,             !- Name
  {2b33b5e0-15ba-46d9-88b3-55a6124f14a8}, !- Thermal Zone
  {5a065467-21b4-4d0d-b407-0b9624705373}, !- Zone Equipment 1
  1,                                      !- Zone Equipment Cooling Sequence 1
  1;                                      !- Zone Equipment Heating or No-Load Sequence 1

OS:Space,
  {83bcf0a2-13ee-4e6c-9e11-d27b237133ed}, !- Handle
  living space|unit 2|story 1,            !- Name
  {a9955058-7a4e-4f3b-95a7-73e0bdca1050}, !- Space Type Name
  ,                                       !- Default Construction Set Name
  ,                                       !- Default Schedule Set Name
  -0,                                     !- Direction of Relative North {deg}
  0,                                      !- X Origin {m}
  0,                                      !- Y Origin {m}
  0,                                      !- Z Origin {m}
  ,                                       !- Building Story Name
  {2b33b5e0-15ba-46d9-88b3-55a6124f14a8}, !- Thermal Zone Name
  ,                                       !- Part of Total Floor Area
  ,                                       !- Design Specification Outdoor Air Object Name
  {c93db4ce-aa39-4153-baca-167c7ce270e8}; !- Building Unit Name

OS:Surface,
  {4ada0112-fc87-4ca0-a233-f21c4ce8bdde}, !- Handle
  Surface 12,                             !- Name
  Wall,                                   !- Surface Type
  ,                                       !- Construction Name
  {83bcf0a2-13ee-4e6c-9e11-d27b237133ed}, !- Space Name
  Outdoors,                               !- Outside Boundary Condition
  ,                                       !- Outside Boundary Condition Object
  SunExposed,                             !- Sun Exposure
  WindExposed,                            !- Wind Exposure
  ,                                       !- View Factor to Ground
  ,                                       !- Number of Vertices
  6.46578440716979, -12.9315688143396, 2.4384, !- X,Y,Z Vertex 1 {m}
  6.46578440716979, -12.9315688143396, 0, !- X,Y,Z Vertex 2 {m}
  12.9315688143396, -12.9315688143396, 0, !- X,Y,Z Vertex 3 {m}
  12.9315688143396, -12.9315688143396, 2.4384; !- X,Y,Z Vertex 4 {m}

OS:Surface,
  {36bac98c-d15e-4d4a-930a-9a7c9971c894}, !- Handle
  Surface 13,                             !- Name
  Floor,                                  !- Surface Type
  ,                                       !- Construction Name
  {83bcf0a2-13ee-4e6c-9e11-d27b237133ed}, !- Space Name
  Foundation,                             !- Outside Boundary Condition
  ,                                       !- Outside Boundary Condition Object
  NoSun,                                  !- Sun Exposure
  NoWind,                                 !- Wind Exposure
  ,                                       !- View Factor to Ground
  ,                                       !- Number of Vertices
  6.46578440716979, -12.9315688143396, 0, !- X,Y,Z Vertex 1 {m}
  6.46578440716979, 0, 0,                 !- X,Y,Z Vertex 2 {m}
  12.9315688143396, 0, 0,                 !- X,Y,Z Vertex 3 {m}
  12.9315688143396, -12.9315688143396, 0; !- X,Y,Z Vertex 4 {m}

OS:Surface,
  {0bd9a310-09fe-4510-81db-74f53c6a8e2a}, !- Handle
  Surface 14,                             !- Name
  Wall,                                   !- Surface Type
  ,                                       !- Construction Name
  {83bcf0a2-13ee-4e6c-9e11-d27b237133ed}, !- Space Name
  Surface,                                !- Outside Boundary Condition
  {afb73e31-c95f-492c-b809-979a7e79b4be}, !- Outside Boundary Condition Object
  NoSun,                                  !- Sun Exposure
  NoWind,                                 !- Wind Exposure
  ,                                       !- View Factor to Ground
  ,                                       !- Number of Vertices
  6.46578440716979, 0, 2.4384,            !- X,Y,Z Vertex 1 {m}
  6.46578440716979, 0, 0,                 !- X,Y,Z Vertex 2 {m}
  6.46578440716979, -12.9315688143396, 0, !- X,Y,Z Vertex 3 {m}
  6.46578440716979, -12.9315688143396, 2.4384; !- X,Y,Z Vertex 4 {m}

OS:Surface,
  {75f8ce43-dadd-4f07-b5c8-3c6842cfa56f}, !- Handle
  Surface 15,                             !- Name
  Wall,                                   !- Surface Type
  ,                                       !- Construction Name
  {83bcf0a2-13ee-4e6c-9e11-d27b237133ed}, !- Space Name
  Surface,                                !- Outside Boundary Condition
  {e908bb62-916f-4827-8824-04e77206ea45}, !- Outside Boundary Condition Object
  NoSun,                                  !- Sun Exposure
  NoWind,                                 !- Wind Exposure
  ,                                       !- View Factor to Ground
  ,                                       !- Number of Vertices
  12.9315688143396, -12.9315688143396, 2.4384, !- X,Y,Z Vertex 1 {m}
  12.9315688143396, -12.9315688143396, 0, !- X,Y,Z Vertex 2 {m}
  12.9315688143396, 0, 0,                 !- X,Y,Z Vertex 3 {m}
  12.9315688143396, 0, 2.4384;            !- X,Y,Z Vertex 4 {m}

OS:Surface,
  {32cce3f0-252f-4c7c-834c-b6f1eb487ad8}, !- Handle
  Surface 16,                             !- Name
  Wall,                                   !- Surface Type
  ,                                       !- Construction Name
  {83bcf0a2-13ee-4e6c-9e11-d27b237133ed}, !- Space Name
  Outdoors,                               !- Outside Boundary Condition
  ,                                       !- Outside Boundary Condition Object
  SunExposed,                             !- Sun Exposure
  WindExposed,                            !- Wind Exposure
  ,                                       !- View Factor to Ground
  ,                                       !- Number of Vertices
  12.9315688143396, 0, 2.4384,            !- X,Y,Z Vertex 1 {m}
  12.9315688143396, 0, 0,                 !- X,Y,Z Vertex 2 {m}
  6.46578440716979, 0, 0,                 !- X,Y,Z Vertex 3 {m}
  6.46578440716979, 0, 2.4384;            !- X,Y,Z Vertex 4 {m}

OS:Surface,
  {cbad9048-97f0-4732-9ac4-971b1b42e90b}, !- Handle
  Surface 17,                             !- Name
  RoofCeiling,                            !- Surface Type
  ,                                       !- Construction Name
  {83bcf0a2-13ee-4e6c-9e11-d27b237133ed}, !- Space Name
  Surface,                                !- Outside Boundary Condition
  {9a3c5875-33db-4eeb-b0ad-67f6ec58ff47}, !- Outside Boundary Condition Object
  NoSun,                                  !- Sun Exposure
  NoWind,                                 !- Wind Exposure
  ,                                       !- View Factor to Ground
  ,                                       !- Number of Vertices
  12.9315688143396, -12.9315688143396, 2.4384, !- X,Y,Z Vertex 1 {m}
  12.9315688143396, 0, 2.4384,            !- X,Y,Z Vertex 2 {m}
  6.46578440716979, 0, 2.4384,            !- X,Y,Z Vertex 3 {m}
  6.46578440716979, -12.9315688143396, 2.4384; !- X,Y,Z Vertex 4 {m}

OS:ThermalZone,
  {11c32cc2-403c-4b73-b5d4-b919e66ce691}, !- Handle
  living zone|unit 3,                     !- Name
  ,                                       !- Multiplier
  ,                                       !- Ceiling Height {m}
  ,                                       !- Volume {m3}
  ,                                       !- Floor Area {m2}