!- NOTE: Auto-generated from /test/osw_files/MF_8units_1story_SL_3Beds_2Baths_Denver_Furnace_CentralAC.osw

OS:Version,
  {a3b98980-a2f7-449c-8000-1168c8e6d309}, !- Handle
  2.7.0;                                  !- Version Identifier

OS:Building,
  {3f7207d3-34a0-4697-b6e8-90f74a674f85}, !- Handle
  Building 1,                             !- Name
  ,                                       !- Building Sector Type
  0,                                      !- North Axis {deg}
  ,                                       !- Nominal Floor to Floor Height {m}
  ,                                       !- Space Type Name
  ,                                       !- Default Construction Set Name
  ,                                       !- Default Schedule Set Name
  1,                                      !- Standards Number of Stories
  1,                                      !- Standards Number of Above Ground Stories
  ,                                       !- Standards Template
  multifamily,                            !- Standards Building Type
  8;                                      !- Standards Number of Living Units

OS:Facility,
  {73f746e7-cf27-4262-b542-fd19a077da1f}; !- Handle

OS:Site,
  {089dfe52-1ff3-4adc-8d79-303b943dfec3}, !- Handle
  Denver Intl Ap_CO_USA,                  !- Name
  39.83,                                  !- Latitude {deg}
  -104.65,                                !- Longitude {deg}
  -7,                                     !- Time Zone {hr}
  1650,                                   !- Elevation {m}
  ;                                       !- Terrain

OS:SimulationControl,
  {664a161d-60d3-49ed-abee-b347ec701e6e}, !- Handle
  ,                                       !- Do Zone Sizing Calculation
  ,                                       !- Do System Sizing Calculation
  ,                                       !- Do Plant Sizing Calculation
  No;                                     !- Run Simulation for Sizing Periods

OS:Sizing:Parameters,
  {18f30ae2-d7da-4d02-98d1-e2b90f6fa729}, !- Handle
  1.25,                                   !- Heating Sizing Factor
  1.15;                                   !- Cooling Sizing Factor

OS:Timestep,
  {06e44d93-e3e2-428f-894e-f993ca0e1e40}, !- Handle
  6;                                      !- Number of Timesteps per Hour

OS:ShadowCalculation,
  {430b1269-bff6-4c22-8f9d-39651ddf1608}, !- Handle
  20,                                     !- Calculation Frequency
  200;                                    !- Maximum Figures in Shadow Overlap Calculations

OS:HeatBalanceAlgorithm,
  {3bdb97dd-7c48-433a-814b-82ded1e6c429}, !- Handle
  MoisturePenetrationDepthConductionTransferFunction, !- Algorithm
  200;                                    !- Surface Temperature Upper Limit {C}

OS:RunPeriod,
  {a47f396c-bc27-480a-a797-1e59c50e5dd9}, !- Handle
  Run Period 1,                           !- Name
  1,                                      !- Begin Month
  1,                                      !- Begin Day of Month
  12,                                     !- End Month
  31,                                     !- End Day of Month
  ,                                       !- Use Weather File Holidays and Special Days
  ,                                       !- Use Weather File Daylight Saving Period
  ,                                       !- Apply Weekend Holiday Rule
  ,                                       !- Use Weather File Rain Indicators
  ,                                       !- Use Weather File Snow Indicators
  ;                                       !- Number of Times Runperiod to be Repeated

OS:LifeCycleCost:Parameters,
  {32488cc3-4fb3-4fce-9336-d3bb27dbd2ad}, !- Handle
  ,                                       !- Analysis Type
  ,                                       !- Discounting Convention
  ,                                       !- Inflation Approach
  ,                                       !- Real Discount Rate
  ,                                       !- Nominal Discount Rate
  ,                                       !- Inflation
  ,                                       !- Base Date Month
  ,                                       !- Base Date Year
  ,                                       !- Service Date Month
  ,                                       !- Service Date Year
  ;                                       !- Length of Study Period in Years

OS:SurfaceConvectionAlgorithm:Outside,
  {e2e721ce-388d-4e72-9866-bc33dddb97f2}, !- Handle
  DOE-2;                                  !- Algorithm

OS:SurfaceConvectionAlgorithm:Inside,
  {a34f904e-432f-430c-9835-017cbaf3226b}, !- Handle
  TARP;                                   !- Algorithm

OS:ZoneCapacitanceMultiplier:ResearchSpecial,
  {cf1fa5b1-a0c4-4ff2-a4e6-57ade8cf7a21}, !- Handle
  ,                                       !- Temperature Capacity Multiplier
  1,                                      !- Humidity Capacity Multiplier
  ;                                       !- Carbon Dioxide Capacity Multiplier

OS:ThermalZone,
  {50518625-9112-40e5-8c23-29c916a4e536}, !- Handle
  living zone,                            !- Name
  ,                                       !- Multiplier
  ,                                       !- Ceiling Height {m}
  ,                                       !- Volume {m3}
  ,                                       !- Floor Area {m2}
  ,                                       !- Zone Inside Convection Algorithm
  ,                                       !- Zone Outside Convection Algorithm
  ,                                       !- Zone Conditioning Equipment List Name
  {9a6d6a40-f6c5-4d62-989c-c40059a3d2e9}, !- Zone Air Inlet Port List
  {e4c1263d-847b-4bd1-afb8-3463f6d315e3}, !- Zone Air Exhaust Port List
  {0da9196a-ba5e-41f7-88bc-ec4b4df4e428}, !- Zone Air Node Name
  {927d5585-f1d3-45f6-93b2-9951ba24cac3}, !- Zone Return Air Port List
  ,                                       !- Primary Daylighting Control Name
  ,                                       !- Fraction of Zone Controlled by Primary Daylighting Control
  ,                                       !- Secondary Daylighting Control Name
  ,                                       !- Fraction of Zone Controlled by Secondary Daylighting Control
  ,                                       !- Illuminance Map Name
  ,                                       !- Group Rendering Name
  {4a0a88fc-8ac5-40c7-9391-40706f68669b}, !- Thermostat Name
  No;                                     !- Use Ideal Air Loads

OS:Node,
  {40dc6335-8ab1-4fa8-995c-68ae63f406b4}, !- Handle
  Node 1,                                 !- Name
  {0da9196a-ba5e-41f7-88bc-ec4b4df4e428}, !- Inlet Port
  ;                                       !- Outlet Port

OS:Connection,
  {0da9196a-ba5e-41f7-88bc-ec4b4df4e428}, !- Handle
  {b5d2b593-c9c4-4f74-9cc4-ec5858f32b4f}, !- Name
  {50518625-9112-40e5-8c23-29c916a4e536}, !- Source Object
  11,                                     !- Outlet Port
  {40dc6335-8ab1-4fa8-995c-68ae63f406b4}, !- Target Object
  2;                                      !- Inlet Port

OS:PortList,
  {9a6d6a40-f6c5-4d62-989c-c40059a3d2e9}, !- Handle
  {5ca04015-52b6-40f4-8103-85bb883381b9}, !- Name
  {50518625-9112-40e5-8c23-29c916a4e536}, !- HVAC Component
  {470625f6-61ea-4eb1-8c7f-80f842374b05}; !- Port 1

OS:PortList,
  {e4c1263d-847b-4bd1-afb8-3463f6d315e3}, !- Handle
  {5ee8f034-c524-438c-839a-c417383a4a87}, !- Name
  {50518625-9112-40e5-8c23-29c916a4e536}; !- HVAC Component

OS:PortList,
  {927d5585-f1d3-45f6-93b2-9951ba24cac3}, !- Handle
  {46b8b1fd-ff3f-4dec-94ea-085ab70a75d4}, !- Name
  {50518625-9112-40e5-8c23-29c916a4e536}, !- HVAC Component
  {1966dce1-5581-4674-8b35-50fbe4b870a2}; !- Port 1

OS:Sizing:Zone,
  {5e34814f-465f-439a-b65b-ba9f1d898bc0}, !- Handle
  {50518625-9112-40e5-8c23-29c916a4e536}, !- Zone or ZoneList Name
  SupplyAirTemperature,                   !- Zone Cooling Design Supply Air Temperature Input Method
  14,                                     !- Zone Cooling Design Supply Air Temperature {C}
  11.11,                                  !- Zone Cooling Design Supply Air Temperature Difference {deltaC}
  SupplyAirTemperature,                   !- Zone Heating Design Supply Air Temperature Input Method
  40,                                     !- Zone Heating Design Supply Air Temperature {C}
  11.11,                                  !- Zone Heating Design Supply Air Temperature Difference {deltaC}
  0.0085,                                 !- Zone Cooling Design Supply Air Humidity Ratio {kg-H2O/kg-air}
  0.008,                                  !- Zone Heating Design Supply Air Humidity Ratio {kg-H2O/kg-air}
  ,                                       !- Zone Heating Sizing Factor
  ,                                       !- Zone Cooling Sizing Factor
  DesignDay,                              !- Cooling Design Air Flow Method
  ,                                       !- Cooling Design Air Flow Rate {m3/s}
  ,                                       !- Cooling Minimum Air Flow per Zone Floor Area {m3/s-m2}
  ,                                       !- Cooling Minimum Air Flow {m3/s}
  ,                                       !- Cooling Minimum Air Flow Fraction
  DesignDay,                              !- Heating Design Air Flow Method
  ,                                       !- Heating Design Air Flow Rate {m3/s}
  ,                                       !- Heating Maximum Air Flow per Zone Floor Area {m3/s-m2}
  ,                                       !- Heating Maximum Air Flow {m3/s}
  ,                                       !- Heating Maximum Air Flow Fraction
  ,                                       !- Design Zone Air Distribution Effectiveness in Cooling Mode
  ,                                       !- Design Zone Air Distribution Effectiveness in Heating Mode
  No,                                     !- Account for Dedicated Outdoor Air System
  NeutralSupplyAir,                       !- Dedicated Outdoor Air System Control Strategy
  autosize,                               !- Dedicated Outdoor Air Low Setpoint Temperature for Design {C}
  autosize;                               !- Dedicated Outdoor Air High Setpoint Temperature for Design {C}

OS:ZoneHVAC:EquipmentList,
  {8c7d6e33-889e-4952-8f06-e8e045f25e8c}, !- Handle
  Zone HVAC Equipment List 1,             !- Name
  {50518625-9112-40e5-8c23-29c916a4e536}, !- Thermal Zone
  ,                                       !- Load Distribution Scheme
  {c14c79c9-37bd-4856-ad77-650887add48b}, !- Zone Equipment 1
  1,                                      !- Zone Equipment Cooling Sequence 1
  1;                                      !- Zone Equipment Heating or No-Load Sequence 1

OS:Space,
  {c5540d50-dd91-4c8e-9e93-7574341b1bd6}, !- Handle
  living space,                           !- Name
  {81f1d020-8bef-4f1d-90a5-41c948d50423}, !- Space Type Name
  ,                                       !- Default Construction Set Name
  ,                                       !- Default Schedule Set Name
  ,                                       !- Direction of Relative North {deg}
  ,                                       !- X Origin {m}
  ,                                       !- Y Origin {m}
  ,                                       !- Z Origin {m}
  ,                                       !- Building Story Name
  {50518625-9112-40e5-8c23-29c916a4e536}, !- Thermal Zone Name
  ,                                       !- Part of Total Floor Area
  ,                                       !- Design Specification Outdoor Air Object Name
  {470e03af-c1b8-4b7e-93f1-db6b1e5b0562}; !- Building Unit Name

OS:Surface,
  {55eba105-fe2c-45eb-97b0-9ff8204fd78e}, !- Handle
  Surface 1,                              !- Name
  Floor,                                  !- Surface Type
  ,                                       !- Construction Name
  {c5540d50-dd91-4c8e-9e93-7574341b1bd6}, !- Space Name
  Foundation,                             !- Outside Boundary Condition
  ,                                       !- Outside Boundary Condition Object
  NoSun,                                  !- Sun Exposure
  NoWind,                                 !- Wind Exposure
  ,                                       !- View Factor to Ground
  ,                                       !- Number of Vertices
  0, -12.9315688143396, 0,                !- X,Y,Z Vertex 1 {m}
  0, 0, 0,                                !- X,Y,Z Vertex 2 {m}
  6.46578440716979, 0, 0,                 !- X,Y,Z Vertex 3 {m}
  6.46578440716979, -12.9315688143396, 0; !- X,Y,Z Vertex 4 {m}

OS:Surface,
  {0df1e76f-d978-436e-bb73-59e65f5b960a}, !- Handle
  Surface 2,                              !- Name
  Wall,                                   !- Surface Type
  ,                                       !- Construction Name
  {c5540d50-dd91-4c8e-9e93-7574341b1bd6}, !- Space Name
  Outdoors,                               !- Outside Boundary Condition
  ,                                       !- Outside Boundary Condition Object
  SunExposed,                             !- Sun Exposure
  WindExposed,                            !- Wind Exposure
  ,                                       !- View Factor to Ground
  ,                                       !- Number of Vertices
  0, 0, 2.4384,                           !- X,Y,Z Vertex 1 {m}
  0, 0, 0,                                !- X,Y,Z Vertex 2 {m}
  0, -12.9315688143396, 0,                !- X,Y,Z Vertex 3 {m}
  0, -12.9315688143396, 2.4384;           !- X,Y,Z Vertex 4 {m}

OS:Surface,
  {99629a6c-b771-4354-9edf-24724279795b}, !- Handle
  Surface 3,                              !- Name
  Wall,                                   !- Surface Type
  ,                                       !- Construction Name
  {c5540d50-dd91-4c8e-9e93-7574341b1bd6}, !- Space Name
  Adiabatic,                              !- Outside Boundary Condition
  ,                                       !- Outside Boundary Condition Object
  NoSun,                                  !- Sun Exposure
  NoWind,                                 !- Wind Exposure
  ,                                       !- View Factor to Ground
  ,                                       !- Number of Vertices
  6.46578440716979, 0, 2.4384,            !- X,Y,Z Vertex 1 {m}
  6.46578440716979, 0, 0,                 !- X,Y,Z Vertex 2 {m}
  0, 0, 0,                                !- X,Y,Z Vertex 3 {m}
  0, 0, 2.4384;                           !- X,Y,Z Vertex 4 {m}

OS:Surface,
  {e40c5b4a-07ed-473f-83ff-c47c5b7aa592}, !- Handle
  Surface 4,                              !- Name
  Wall,                                   !- Surface Type
  ,                                       !- Construction Name
  {c5540d50-dd91-4c8e-9e93-7574341b1bd6}, !- Space Name
  Surface,                                !- Outside Boundary Condition
  {b79355c5-7580-4649-ba82-141f0c3081ce}, !- Outside Boundary Condition Object
  NoSun,                                  !- Sun Exposure
  NoWind,                                 !- Wind Exposure
  ,                                       !- View Factor to Ground
  ,                                       !- Number of Vertices
  6.46578440716979, -12.9315688143396, 2.4384, !- X,Y,Z Vertex 1 {m}
  6.46578440716979, -12.9315688143396, 0, !- X,Y,Z Vertex 2 {m}
  6.46578440716979, 0, 0,                 !- X,Y,Z Vertex 3 {m}
  6.46578440716979, 0, 2.4384;            !- X,Y,Z Vertex 4 {m}

OS:Surface,
  {01a428dc-2c82-4d0a-b405-83013f205eb1}, !- Handle
  Surface 5,                              !- Name
  Wall,                                   !- Surface Type
  ,                                       !- Construction Name
  {c5540d50-dd91-4c8e-9e93-7574341b1bd6}, !- Space Name
  Outdoors,                               !- Outside Boundary Condition
  ,                                       !- Outside Boundary Condition Object
  SunExposed,                             !- Sun Exposure
  WindExposed,                            !- Wind Exposure
  ,                                       !- View Factor to Ground
  ,                                       !- Number of Vertices
  0, -12.9315688143396, 2.4384,           !- X,Y,Z Vertex 1 {m}
  0, -12.9315688143396, 0,                !- X,Y,Z Vertex 2 {m}
  6.46578440716979, -12.9315688143396, 0, !- X,Y,Z Vertex 3 {m}
  6.46578440716979, -12.9315688143396, 2.4384; !- X,Y,Z Vertex 4 {m}

OS:Surface,
  {871eeb56-3254-4870-9923-eadc7b63b02e}, !- Handle
  Surface 6,                              !- Name
  RoofCeiling,                            !- Surface Type
  ,                                       !- Construction Name
  {c5540d50-dd91-4c8e-9e93-7574341b1bd6}, !- Space Name
  Outdoors,                               !- Outside Boundary Condition
  ,                                       !- Outside Boundary Condition Object
  SunExposed,                             !- Sun Exposure
  WindExposed,                            !- Wind Exposure
  ,                                       !- View Factor to Ground
  ,                                       !- Number of Vertices
  6.46578440716979, -12.9315688143396, 2.4384, !- X,Y,Z Vertex 1 {m}
  6.46578440716979, 0, 2.4384,            !- X,Y,Z Vertex 2 {m}
  0, 0, 2.4384,                           !- X,Y,Z Vertex 3 {m}
  0, -12.9315688143396, 2.4384;           !- X,Y,Z Vertex 4 {m}

OS:SpaceType,
  {81f1d020-8bef-4f1d-90a5-41c948d50423}, !- Handle
  Space Type 1,                           !- Name
  ,                                       !- Default Construction Set Name
  ,                                       !- Default Schedule Set Name
  ,                                       !- Group Rendering Name
  ,                                       !- Design Specification Outdoor Air Object Name
  ,                                       !- Standards Template
  ,                                       !- Standards Building Type
  living;                                 !- Standards Space Type

OS:ThermalZone,
  {aee78c9f-36dd-4e67-9503-ec8b2de941ab}, !- Handle
  living zone|unit 2,                     !- Name
  ,                                       !- Multiplier
  ,                                       !- Ceiling Height {m}
  ,                                       !- Volume {m3}
  ,                                       !- Floor Area {m2}
  ,                                       !- Zone Inside Convection Algorithm
  ,                                       !- Zone Outside Convection Algorithm
  ,                                       !- Zone Conditioning Equipment List Name
  {2f84a18c-21c3-4b26-8297-10d2b95a6e2a}, !- Zone Air Inlet Port List
  {21329920-9f45-49d0-900f-eccab116b5f2}, !- Zone Air Exhaust Port List
  {712b47c5-40b6-4096-a604-67d9e04485e1}, !- Zone Air Node Name
  {9adcef28-83a9-4d76-b262-edab75a1a7fe}, !- Zone Return Air Port List
  ,                                       !- Primary Daylighting Control Name
  ,                                       !- Fraction of Zone Controlled by Primary Daylighting Control
  ,                                       !- Secondary Daylighting Control Name
  ,                                       !- Fraction of Zone Controlled by Secondary Daylighting Control
  ,                                       !- Illuminance Map Name
  ,                                       !- Group Rendering Name
  {b3e37881-a93b-4761-8413-f5050362b109}, !- Thermostat Name
  No;                                     !- Use Ideal Air Loads

OS:Node,
  {e94419bf-86a3-464a-8672-9c29b0938d3d}, !- Handle
  Node 2,                                 !- Name
  {712b47c5-40b6-4096-a604-67d9e04485e1}, !- Inlet Port
  ;                                       !- Outlet Port

OS:Connection,
  {712b47c5-40b6-4096-a604-67d9e04485e1}, !- Handle
  {5208463f-b2d0-4ea1-bb66-21f641508861}, !- Name
  {aee78c9f-36dd-4e67-9503-ec8b2de941ab}, !- Source Object
  11,                                     !- Outlet Port
  {e94419bf-86a3-464a-8672-9c29b0938d3d}, !- Target Object
  2;                                      !- Inlet Port

OS:PortList,
  {2f84a18c-21c3-4b26-8297-10d2b95a6e2a}, !- Handle
  {40f7ac85-8415-4e76-b064-7b23518f1de8}, !- Name
  {aee78c9f-36dd-4e67-9503-ec8b2de941ab}, !- HVAC Component
  {d55aed3f-0a40-47a0-9be6-01c104b05359}; !- Port 1

OS:PortList,
  {21329920-9f45-49d0-900f-eccab116b5f2}, !- Handle
  {d07c1a8a-3b44-4b2c-95ea-244160497cd4}, !- Name
  {aee78c9f-36dd-4e67-9503-ec8b2de941ab}; !- HVAC Component

OS:PortList,
  {9adcef28-83a9-4d76-b262-edab75a1a7fe}, !- Handle
  {99cabedd-c473-4627-9239-d914acdded00}, !- Name
  {aee78c9f-36dd-4e67-9503-ec8b2de941ab}, !- HVAC Component
  {39ccae38-802a-4199-a760-0a2f11dc1533}; !- Port 1

OS:Sizing:Zone,
  {b4f152e1-c0d1-435b-9f0a-3cce65521866}, !- Handle
  {aee78c9f-36dd-4e67-9503-ec8b2de941ab}, !- Zone or ZoneList Name
  SupplyAirTemperature,                   !- Zone Cooling Design Supply Air Temperature Input Method
  14,                                     !- Zone Cooling Design Supply Air Temperature {C}
  11.11,                                  !- Zone Cooling Design Supply Air Temperature Difference {deltaC}
  SupplyAirTemperature,                   !- Zone Heating Design Supply Air Temperature Input Method
  40,                                     !- Zone Heating Design Supply Air Temperature {C}
  11.11,                                  !- Zone Heating Design Supply Air Temperature Difference {deltaC}
  0.0085,                                 !- Zone Cooling Design Supply Air Humidity Ratio {kg-H2O/kg-air}
  0.008,                                  !- Zone Heating Design Supply Air Humidity Ratio {kg-H2O/kg-air}
  ,                                       !- Zone Heating Sizing Factor
  ,                                       !- Zone Cooling Sizing Factor
  DesignDay,                              !- Cooling Design Air Flow Method
  ,                                       !- Cooling Design Air Flow Rate {m3/s}
  ,                                       !- Cooling Minimum Air Flow per Zone Floor Area {m3/s-m2}
  ,                                       !- Cooling Minimum Air Flow {m3/s}
  ,                                       !- Cooling Minimum Air Flow Fraction
  DesignDay,                              !- Heating Design Air Flow Method
  ,                                       !- Heating Design Air Flow Rate {m3/s}
  ,                                       !- Heating Maximum Air Flow per Zone Floor Area {m3/s-m2}
  ,                                       !- Heating Maximum Air Flow {m3/s}
  ,                                       !- Heating Maximum Air Flow Fraction
  ,                                       !- Design Zone Air Distribution Effectiveness in Cooling Mode
  ,                                       !- Design Zone Air Distribution Effectiveness in Heating Mode
  No,                                     !- Account for Dedicated Outdoor Air System
  NeutralSupplyAir,                       !- Dedicated Outdoor Air System Control Strategy
  autosize,                               !- Dedicated Outdoor Air Low Setpoint Temperature for Design {C}
  autosize;                               !- Dedicated Outdoor Air High Setpoint Temperature for Design {C}

OS:ZoneHVAC:EquipmentList,
  {eb52c732-bc89-49c1-81e6-1a2152cfcaad}, !- Handle
  Zone HVAC Equipment List 2,             !- Name
  {aee78c9f-36dd-4e67-9503-ec8b2de941ab}, !- Thermal Zone
  ,                                       !- Load Distribution Scheme
  {47fbcb6b-9c3f-43e9-b552-ea948f4b563d}, !- Zone Equipment 1
  1,                                      !- Zone Equipment Cooling Sequence 1
  1;                                      !- Zone Equipment Heating or No-Load Sequence 1

OS:Space,
  {55fdbf8b-dcd7-4137-9e5e-a2661adedeac}, !- Handle
  living space|unit 2,                    !- Name
  {81f1d020-8bef-4f1d-90a5-41c948d50423}, !- Space Type Name
  ,                                       !- Default Construction Set Name
  ,                                       !- Default Schedule Set Name
  ,                                       !- Direction of Relative North {deg}
  ,                                       !- X Origin {m}
  ,                                       !- Y Origin {m}
  ,                                       !- Z Origin {m}
  ,                                       !- Building Story Name
  {aee78c9f-36dd-4e67-9503-ec8b2de941ab}, !- Thermal Zone Name
  ,                                       !- Part of Total Floor Area
  ,                                       !- Design Specification Outdoor Air Object Name
  {ef7baf16-1ef0-46f9-8b49-b035e9990d10}; !- Building Unit Name

OS:Surface,
  {44349559-1767-402e-9f2c-cf8eb7e88662}, !- Handle
  Surface 7,                              !- Name
  Floor,                                  !- Surface Type
  ,                                       !- Construction Name
  {55fdbf8b-dcd7-4137-9e5e-a2661adedeac}, !- Space Name
  Foundation,                             !- Outside Boundary Condition
  ,                                       !- Outside Boundary Condition Object
  NoSun,                                  !- Sun Exposure
  NoWind,                                 !- Wind Exposure
  ,                                       !- View Factor to Ground
  ,                                       !- Number of Vertices
  0, 3.048, 0,                            !- X,Y,Z Vertex 1 {m}
  0, 15.9795688143396, 0,                 !- X,Y,Z Vertex 2 {m}
  6.46578440716979, 15.9795688143396, 0,  !- X,Y,Z Vertex 3 {m}
  6.46578440716979, 3.048, 0;             !- X,Y,Z Vertex 4 {m}

OS:Surface,
  {79aafadb-4569-498d-8e31-4944be37fbb9}, !- Handle
  Surface 8,                              !- Name
  Wall,                                   !- Surface Type
  ,                                       !- Construction Name
  {55fdbf8b-dcd7-4137-9e5e-a2661adedeac}, !- Space Name
  Outdoors,                               !- Outside Boundary Condition
  ,                                       !- Outside Boundary Condition Object
  SunExposed,                             !- Sun Exposure
  WindExposed,                            !- Wind Exposure
  ,                                       !- View Factor to Ground
  ,                                       !- Number of Vertices
  0, 15.9795688143396, 2.4384,            !- X,Y,Z Vertex 1 {m}
  0, 15.9795688143396, 0,                 !- X,Y,Z Vertex 2 {m}
  0, 3.048, 0,                            !- X,Y,Z Vertex 3 {m}
  0, 3.048, 2.4384;                       !- X,Y,Z Vertex 4 {m}

OS:Surface,
  {ee1c6ef1-d78e-480b-b4b6-e48e40958514}, !- Handle
  Surface 9,                              !- Name
  Wall,                                   !- Surface Type
  ,                                       !- Construction Name
  {55fdbf8b-dcd7-4137-9e5e-a2661adedeac}, !- Space Name
  Outdoors,                               !- Outside Boundary Condition
  ,                                       !- Outside Boundary Condition Object
  SunExposed,                             !- Sun Exposure
  WindExposed,                            !- Wind Exposure
  ,                                       !- View Factor to Ground
  ,                                       !- Number of Vertices
  6.46578440716979, 15.9795688143396, 2.4384, !- X,Y,Z Vertex 1 {m}
  6.46578440716979, 15.9795688143396, 0,  !- X,Y,Z Vertex 2 {m}
  0, 15.9795688143396, 0,                 !- X,Y,Z Vertex 3 {m}
  0, 15.9795688143396, 2.4384;            !- X,Y,Z Vertex 4 {m}

OS:Surface,
  {f11b1105-dd05-4971-9c1c-d9f77fe19468}, !- Handle
  Surface 10,                             !- Name
  Wall,                                   !- Surface Type
  ,                                       !- Construction Name
  {55fdbf8b-dcd7-4137-9e5e-a2661adedeac}, !- Space Name
  Surface,                                !- Outside Boundary Condition
  {26967c69-0b13-46e3-b22c-f57a3a613a0c}, !- Outside Boundary Condition Object
  NoSun,                                  !- Sun Exposure
  NoWind,                                 !- Wind Exposure
  ,                                       !- View Factor to Ground
  ,                                       !- Number of Vertices
  6.46578440716979, 3.048, 2.4384,        !- X,Y,Z Vertex 1 {m}
  6.46578440716979, 3.048, 0,             !- X,Y,Z Vertex 2 {m}
  6.46578440716979, 15.9795688143396, 0,  !- X,Y,Z Vertex 3 {m}
  6.46578440716979, 15.9795688143396, 2.4384; !- X,Y,Z Vertex 4 {m}

OS:Surface,
  {f9109db2-d571-4375-ad71-4fd6d6789497}, !- Handle
  Surface 11,                             !- Name
  Wall,                                   !- Surface Type
  ,                                       !- Construction Name
  {55fdbf8b-dcd7-4137-9e5e-a2661adedeac}, !- Space Name
  Adiabatic,                              !- Outside Boundary Condition
  ,                                       !- Outside Boundary Condition Object
  NoSun,                                  !- Sun Exposure
  NoWind,                                 !- Wind Exposure
  ,                                       !- View Factor to Ground
  ,                                       !- Number of Vertices
  0, 3.048, 2.4384,                       !- X,Y,Z Vertex 1 {m}
  0, 3.048, 0,                            !- X,Y,Z Vertex 2 {m}
  6.46578440716979, 3.048, 0,             !- X,Y,Z Vertex 3 {m}
  6.46578440716979, 3.048, 2.4384;        !- X,Y,Z Vertex 4 {m}

OS:Surface,
  {342deebc-a3d8-4e9d-b65e-e46def6f393e}, !- Handle
  Surface 12,                             !- Name
  RoofCeiling,                            !- Surface Type
  ,                                       !- Construction Name
  {55fdbf8b-dcd7-4137-9e5e-a2661adedeac}, !- Space Name
  Outdoors,                               !- Outside Boundary Condition
  ,                                       !- Outside Boundary Condition Object
  SunExposed,                             !- Sun Exposure
  WindExposed,                            !- Wind Exposure