!- NOTE: Auto-generated from /test/osw_files/SFA_4units_1story_SL_UA_3Beds_2Baths_Denver_CentralAC_NoSetpoints.osw

OS:Version,
  {59b76ce9-1761-45ec-9c8f-dc31d2ab0a13}, !- Handle
  2.7.0;                                  !- Version Identifier

OS:Building,
  {b7c152e2-09b8-4b29-a1d7-5d2d6c603570}, !- Handle
  Building 1,                             !- Name
  ,                                       !- Building Sector Type
  0,                                      !- North Axis {deg}
  ,                                       !- Nominal Floor to Floor Height {m}
  ,                                       !- Space Type Name
  ,                                       !- Default Construction Set Name
  ,                                       !- Default Schedule Set Name
  1,                                      !- Standards Number of Stories
  1,                                      !- Standards Number of Above Ground Stories
  ,                                       !- Standards Template
  singlefamilyttached,                    !- Standards Building Type
  4;                                      !- Standards Number of Living Units

OS:Facility,
  {8c9c2ff9-1170-426f-815b-c69dbe77e306}; !- Handle

OS:Site,
  {2f65061a-d2ee-4c06-a537-b84dde62625f}, !- Handle
  Denver Intl Ap_CO_USA,                  !- Name
  39.83,                                  !- Latitude {deg}
  -104.65,                                !- Longitude {deg}
  -7,                                     !- Time Zone {hr}
  1650,                                   !- Elevation {m}
  ;                                       !- Terrain

OS:SimulationControl,
  {d4436698-635a-41c4-8473-41fd0ebad787}, !- Handle
  ,                                       !- Do Zone Sizing Calculation
  ,                                       !- Do System Sizing Calculation
  ,                                       !- Do Plant Sizing Calculation
  No;                                     !- Run Simulation for Sizing Periods

OS:Sizing:Parameters,
  {b6078750-9567-4cbc-9a55-424b201c29b6}, !- Handle
  1.25,                                   !- Heating Sizing Factor
  1.15;                                   !- Cooling Sizing Factor

OS:Timestep,
  {2957d686-826b-401b-baaa-26b20925928a}, !- Handle
  6;                                      !- Number of Timesteps per Hour

OS:ShadowCalculation,
  {8e5cf197-84b7-4e2a-93bc-a51578843cb7}, !- Handle
  20,                                     !- Calculation Frequency
  200;                                    !- Maximum Figures in Shadow Overlap Calculations

OS:HeatBalanceAlgorithm,
  {9c052026-ef2b-46f2-9eb6-9cbe56cace4b}, !- Handle
  MoisturePenetrationDepthConductionTransferFunction, !- Algorithm
  200;                                    !- Surface Temperature Upper Limit {C}

OS:RunPeriod,
  {4e815435-56d7-4863-a76e-0a2096549a8d}, !- Handle
  Run Period 1,                           !- Name
  1,                                      !- Begin Month
  1,                                      !- Begin Day of Month
  12,                                     !- End Month
  31,                                     !- End Day of Month
  ,                                       !- Use Weather File Holidays and Special Days
  ,                                       !- Use Weather File Daylight Saving Period
  ,                                       !- Apply Weekend Holiday Rule
  ,                                       !- Use Weather File Rain Indicators
  ,                                       !- Use Weather File Snow Indicators
  ;                                       !- Number of Times Runperiod to be Repeated

OS:LifeCycleCost:Parameters,
  {5423cfe4-a517-4950-8c5f-84c92c51e476}, !- Handle
  ,                                       !- Analysis Type
  ,                                       !- Discounting Convention
  ,                                       !- Inflation Approach
  ,                                       !- Real Discount Rate
  ,                                       !- Nominal Discount Rate
  ,                                       !- Inflation
  ,                                       !- Base Date Month
  ,                                       !- Base Date Year
  ,                                       !- Service Date Month
  ,                                       !- Service Date Year
  ;                                       !- Length of Study Period in Years

OS:SurfaceConvectionAlgorithm:Outside,
  {b7db87f4-038c-4f93-9a2b-460a1552256f}, !- Handle
  DOE-2;                                  !- Algorithm

OS:SurfaceConvectionAlgorithm:Inside,
  {425e5a69-fd8a-47de-afc4-e5d3cfca842a}, !- Handle
  TARP;                                   !- Algorithm

OS:ZoneCapacitanceMultiplier:ResearchSpecial,
  {58cdebfa-b6ef-4f07-9976-7a8849fc29f4}, !- Handle
  ,                                       !- Temperature Capacity Multiplier
  1,                                      !- Humidity Capacity Multiplier
  ;                                       !- Carbon Dioxide Capacity Multiplier

OS:ThermalZone,
  {9a048dd3-63ee-44ca-a230-26d96c547af0}, !- Handle
  living zone,                            !- Name
  ,                                       !- Multiplier
  ,                                       !- Ceiling Height {m}
  ,                                       !- Volume {m3}
  ,                                       !- Floor Area {m2}
  ,                                       !- Zone Inside Convection Algorithm
  ,                                       !- Zone Outside Convection Algorithm
  ,                                       !- Zone Conditioning Equipment List Name
  {33b7e77f-c61e-44cc-a607-ca3a328c23b7}, !- Zone Air Inlet Port List
  {3f40f930-8268-4397-876f-c6079bcdd984}, !- Zone Air Exhaust Port List
  {df5d0af1-4c21-4f43-9b28-74d889b86987}, !- Zone Air Node Name
  {deb0bafb-af58-4cf4-b757-cc7f866e4d3d}, !- Zone Return Air Port List
  ,                                       !- Primary Daylighting Control Name
  ,                                       !- Fraction of Zone Controlled by Primary Daylighting Control
  ,                                       !- Secondary Daylighting Control Name
  ,                                       !- Fraction of Zone Controlled by Secondary Daylighting Control
  ,                                       !- Illuminance Map Name
  ,                                       !- Group Rendering Name
  ,                                       !- Thermostat Name
  No;                                     !- Use Ideal Air Loads

OS:Node,
  {ae9a5aec-fdf3-480e-8ebd-2ad63bf0bec2}, !- Handle
  Node 1,                                 !- Name
  {df5d0af1-4c21-4f43-9b28-74d889b86987}, !- Inlet Port
  ;                                       !- Outlet Port

OS:Connection,
  {df5d0af1-4c21-4f43-9b28-74d889b86987}, !- Handle
  {edab8b22-d0dc-47ee-a557-bc5fcb12fe76}, !- Name
  {9a048dd3-63ee-44ca-a230-26d96c547af0}, !- Source Object
  11,                                     !- Outlet Port
  {ae9a5aec-fdf3-480e-8ebd-2ad63bf0bec2}, !- Target Object
  2;                                      !- Inlet Port

OS:PortList,
  {33b7e77f-c61e-44cc-a607-ca3a328c23b7}, !- Handle
  {559dfb9e-650d-455e-bcdd-47708e2d0274}, !- Name
  {9a048dd3-63ee-44ca-a230-26d96c547af0}, !- HVAC Component
  {f87009c0-e9fc-4b66-9bf3-f4c72f18fa77}; !- Port 1

OS:PortList,
  {3f40f930-8268-4397-876f-c6079bcdd984}, !- Handle
  {58e1f0e5-f6f7-4573-8c68-beefb30236bd}, !- Name
  {9a048dd3-63ee-44ca-a230-26d96c547af0}; !- HVAC Component

OS:PortList,
  {deb0bafb-af58-4cf4-b757-cc7f866e4d3d}, !- Handle
  {8eebab74-e29d-4bd0-afb3-806c53afa289}, !- Name
  {9a048dd3-63ee-44ca-a230-26d96c547af0}, !- HVAC Component
  {639a2dd1-336b-4d02-9a75-626069c6f6e0}; !- Port 1

OS:Sizing:Zone,
  {85d8e0ff-933c-40de-a484-e390ba4088e1}, !- Handle
  {9a048dd3-63ee-44ca-a230-26d96c547af0}, !- Zone or ZoneList Name
  SupplyAirTemperature,                   !- Zone Cooling Design Supply Air Temperature Input Method
  14,                                     !- Zone Cooling Design Supply Air Temperature {C}
  11.11,                                  !- Zone Cooling Design Supply Air Temperature Difference {deltaC}
  SupplyAirTemperature,                   !- Zone Heating Design Supply Air Temperature Input Method
  40,                                     !- Zone Heating Design Supply Air Temperature {C}
  11.11,                                  !- Zone Heating Design Supply Air Temperature Difference {deltaC}
  0.0085,                                 !- Zone Cooling Design Supply Air Humidity Ratio {kg-H2O/kg-air}
  0.008,                                  !- Zone Heating Design Supply Air Humidity Ratio {kg-H2O/kg-air}
  ,                                       !- Zone Heating Sizing Factor
  ,                                       !- Zone Cooling Sizing Factor
  DesignDay,                              !- Cooling Design Air Flow Method
  ,                                       !- Cooling Design Air Flow Rate {m3/s}
  ,                                       !- Cooling Minimum Air Flow per Zone Floor Area {m3/s-m2}
  ,                                       !- Cooling Minimum Air Flow {m3/s}
  ,                                       !- Cooling Minimum Air Flow Fraction
  DesignDay,                              !- Heating Design Air Flow Method
  ,                                       !- Heating Design Air Flow Rate {m3/s}
  ,                                       !- Heating Maximum Air Flow per Zone Floor Area {m3/s-m2}
  ,                                       !- Heating Maximum Air Flow {m3/s}
  ,                                       !- Heating Maximum Air Flow Fraction
  ,                                       !- Design Zone Air Distribution Effectiveness in Cooling Mode
  ,                                       !- Design Zone Air Distribution Effectiveness in Heating Mode
  No,                                     !- Account for Dedicated Outdoor Air System
  NeutralSupplyAir,                       !- Dedicated Outdoor Air System Control Strategy
  autosize,                               !- Dedicated Outdoor Air Low Setpoint Temperature for Design {C}
  autosize;                               !- Dedicated Outdoor Air High Setpoint Temperature for Design {C}

OS:ZoneHVAC:EquipmentList,
  {e0018c73-6f17-4d0d-8d75-1209cc3362fa}, !- Handle
  Zone HVAC Equipment List 1,             !- Name
  {9a048dd3-63ee-44ca-a230-26d96c547af0}, !- Thermal Zone
  ,                                       !- Load Distribution Scheme
  {a13a1fc0-91ea-4a68-a592-f1605cfd3547}, !- Zone Equipment 1
  1,                                      !- Zone Equipment Cooling Sequence 1
  1;                                      !- Zone Equipment Heating or No-Load Sequence 1

OS:Space,
  {e2d6f5ab-ba41-47fd-8348-9e3f7ae417a2}, !- Handle
  living space,                           !- Name
  {fed92083-f56a-4d9c-a37a-60ab86ee905a}, !- Space Type Name
  ,                                       !- Default Construction Set Name
  ,                                       !- Default Schedule Set Name
  ,                                       !- Direction of Relative North {deg}
  ,                                       !- X Origin {m}
  ,                                       !- Y Origin {m}
  ,                                       !- Z Origin {m}
  ,                                       !- Building Story Name
  {9a048dd3-63ee-44ca-a230-26d96c547af0}, !- Thermal Zone Name
  ,                                       !- Part of Total Floor Area
  ,                                       !- Design Specification Outdoor Air Object Name
  {e87fa662-ca7e-4d35-8b59-1c0c5731ba81}; !- Building Unit Name

OS:Surface,
  {50d25c8a-29e9-4821-8442-3b96f23b3212}, !- Handle
  Surface 1,                              !- Name
  Floor,                                  !- Surface Type
  ,                                       !- Construction Name
  {e2d6f5ab-ba41-47fd-8348-9e3f7ae417a2}, !- Space Name
  Foundation,                             !- Outside Boundary Condition
  ,                                       !- Outside Boundary Condition Object
  NoSun,                                  !- Sun Exposure
  NoWind,                                 !- Wind Exposure
  ,                                       !- View Factor to Ground
  ,                                       !- Number of Vertices
  0, -12.9315688143396, 0,                !- X,Y,Z Vertex 1 {m}
  0, 0, 0,                                !- X,Y,Z Vertex 2 {m}
  6.46578440716979, 0, 0,                 !- X,Y,Z Vertex 3 {m}
  6.46578440716979, -12.9315688143396, 0; !- X,Y,Z Vertex 4 {m}

OS:Surface,
  {fdc95626-c63b-4696-ac1f-9df5f2c9a14b}, !- Handle
  Surface 2,                              !- Name
  Wall,                                   !- Surface Type
  ,                                       !- Construction Name
  {e2d6f5ab-ba41-47fd-8348-9e3f7ae417a2}, !- Space Name
  Outdoors,                               !- Outside Boundary Condition
  ,                                       !- Outside Boundary Condition Object
  SunExposed,                             !- Sun Exposure
  WindExposed,                            !- Wind Exposure
  ,                                       !- View Factor to Ground
  ,                                       !- Number of Vertices
  0, 0, 2.4384,                           !- X,Y,Z Vertex 1 {m}
  0, 0, 0,                                !- X,Y,Z Vertex 2 {m}
  0, -12.9315688143396, 0,                !- X,Y,Z Vertex 3 {m}
  0, -12.9315688143396, 2.4384;           !- X,Y,Z Vertex 4 {m}

OS:Surface,
  {887dc2cf-f02f-4a32-98b7-75517910d261}, !- Handle
  Surface 3,                              !- Name
  Wall,                                   !- Surface Type
  ,                                       !- Construction Name
  {e2d6f5ab-ba41-47fd-8348-9e3f7ae417a2}, !- Space Name
  Outdoors,                               !- Outside Boundary Condition
  ,                                       !- Outside Boundary Condition Object
  SunExposed,                             !- Sun Exposure
  WindExposed,                            !- Wind Exposure
  ,                                       !- View Factor to Ground
  ,                                       !- Number of Vertices
  6.46578440716979, 0, 2.4384,            !- X,Y,Z Vertex 1 {m}
  6.46578440716979, 0, 0,                 !- X,Y,Z Vertex 2 {m}
  0, 0, 0,                                !- X,Y,Z Vertex 3 {m}
  0, 0, 2.4384;                           !- X,Y,Z Vertex 4 {m}

OS:Surface,
  {784afd91-4c4f-4cbf-9d35-e524d95210d2}, !- Handle
  Surface 4,                              !- Name
  Wall,                                   !- Surface Type
  ,                                       !- Construction Name
  {e2d6f5ab-ba41-47fd-8348-9e3f7ae417a2}, !- Space Name
  Surface,                                !- Outside Boundary Condition
  {a0d5b5e6-405a-457d-a903-878f3f6fb48c}, !- Outside Boundary Condition Object
  NoSun,                                  !- Sun Exposure
  NoWind,                                 !- Wind Exposure
  ,                                       !- View Factor to Ground
  ,                                       !- Number of Vertices
  6.46578440716979, -12.9315688143396, 2.4384, !- X,Y,Z Vertex 1 {m}
  6.46578440716979, -12.9315688143396, 0, !- X,Y,Z Vertex 2 {m}
  6.46578440716979, 0, 0,                 !- X,Y,Z Vertex 3 {m}
  6.46578440716979, 0, 2.4384;            !- X,Y,Z Vertex 4 {m}

OS:Surface,
  {1a18b89e-d45a-4f9e-b204-e68d9b0c9ccf}, !- Handle
  Surface 5,                              !- Name
  Wall,                                   !- Surface Type
  ,                                       !- Construction Name
  {e2d6f5ab-ba41-47fd-8348-9e3f7ae417a2}, !- Space Name
  Outdoors,                               !- Outside Boundary Condition
  ,                                       !- Outside Boundary Condition Object
  SunExposed,                             !- Sun Exposure
  WindExposed,                            !- Wind Exposure
  ,                                       !- View Factor to Ground
  ,                                       !- Number of Vertices
  0, -12.9315688143396, 2.4384,           !- X,Y,Z Vertex 1 {m}
  0, -12.9315688143396, 0,                !- X,Y,Z Vertex 2 {m}
  6.46578440716979, -12.9315688143396, 0, !- X,Y,Z Vertex 3 {m}
  6.46578440716979, -12.9315688143396, 2.4384; !- X,Y,Z Vertex 4 {m}

OS:Surface,
  {074d9ee1-b198-4d7e-b9dd-ebad20d805ab}, !- Handle
  Surface 6,                              !- Name
  RoofCeiling,                            !- Surface Type
  ,                                       !- Construction Name
  {e2d6f5ab-ba41-47fd-8348-9e3f7ae417a2}, !- Space Name
  Surface,                                !- Outside Boundary Condition
  {68138c81-7f0d-44d7-b97e-22378029b977}, !- Outside Boundary Condition Object
  NoSun,                                  !- Sun Exposure
  NoWind,                                 !- Wind Exposure
  ,                                       !- View Factor to Ground
  ,                                       !- Number of Vertices
  6.46578440716979, -12.9315688143396, 2.4384, !- X,Y,Z Vertex 1 {m}
  6.46578440716979, 0, 2.4384,            !- X,Y,Z Vertex 2 {m}
  0, 0, 2.4384,                           !- X,Y,Z Vertex 3 {m}
  0, -12.9315688143396, 2.4384;           !- X,Y,Z Vertex 4 {m}

OS:SpaceType,
  {fed92083-f56a-4d9c-a37a-60ab86ee905a}, !- Handle
  Space Type 1,                           !- Name
  ,                                       !- Default Construction Set Name
  ,                                       !- Default Schedule Set Name
  ,                                       !- Group Rendering Name
  ,                                       !- Design Specification Outdoor Air Object Name
  ,                                       !- Standards Template
  ,                                       !- Standards Building Type
  living;                                 !- Standards Space Type

OS:ThermalZone,
  {0cbfda92-615a-48a4-a3e5-efc7a9e99bd3}, !- Handle
  living zone|unit 2,                     !- Name
  ,                                       !- Multiplier
  ,                                       !- Ceiling Height {m}
  ,                                       !- Volume {m3}
  ,                                       !- Floor Area {m2}
  ,                                       !- Zone Inside Convection Algorithm
  ,                                       !- Zone Outside Convection Algorithm
  ,                                       !- Zone Conditioning Equipment List Name
  {85e65c70-bc3b-450f-8ea7-c56fb84817ab}, !- Zone Air Inlet Port List
  {1bc50f15-24ca-40d0-9a76-a216ec6f05e0}, !- Zone Air Exhaust Port List
  {b2872344-4411-445e-b9c0-4ad6bb990d35}, !- Zone Air Node Name
  {9bb1b5e2-6553-4dde-8d6d-8e0ab435f274}, !- Zone Return Air Port List
  ,                                       !- Primary Daylighting Control Name
  ,                                       !- Fraction of Zone Controlled by Primary Daylighting Control
  ,                                       !- Secondary Daylighting Control Name
  ,                                       !- Fraction of Zone Controlled by Secondary Daylighting Control
  ,                                       !- Illuminance Map Name
  ,                                       !- Group Rendering Name
  ,                                       !- Thermostat Name
  No;                                     !- Use Ideal Air Loads

OS:Node,
  {cf0bec14-2c78-4ff8-bb2f-ba48cc863e14}, !- Handle
  Node 2,                                 !- Name
  {b2872344-4411-445e-b9c0-4ad6bb990d35}, !- Inlet Port
  ;                                       !- Outlet Port

OS:Connection,
  {b2872344-4411-445e-b9c0-4ad6bb990d35}, !- Handle
  {e7160029-31b6-4c95-bd03-3581441bf692}, !- Name
  {0cbfda92-615a-48a4-a3e5-efc7a9e99bd3}, !- Source Object
  11,                                     !- Outlet Port
  {cf0bec14-2c78-4ff8-bb2f-ba48cc863e14}, !- Target Object
  2;                                      !- Inlet Port

OS:PortList,
  {85e65c70-bc3b-450f-8ea7-c56fb84817ab}, !- Handle
  {3e5f608c-ce6b-4c9e-8f1d-025deffadd5c}, !- Name
  {0cbfda92-615a-48a4-a3e5-efc7a9e99bd3}, !- HVAC Component
  {3e09fe0b-ffd2-432f-be01-0cac45c2e393}; !- Port 1

OS:PortList,
  {1bc50f15-24ca-40d0-9a76-a216ec6f05e0}, !- Handle
  {640dbe63-66d6-4903-a978-e941d9fc1498}, !- Name
  {0cbfda92-615a-48a4-a3e5-efc7a9e99bd3}; !- HVAC Component

OS:PortList,
  {9bb1b5e2-6553-4dde-8d6d-8e0ab435f274}, !- Handle
  {ac533a2e-c0ba-49a8-85b2-3fa1490862db}, !- Name
  {0cbfda92-615a-48a4-a3e5-efc7a9e99bd3}, !- HVAC Component
  {7edda6e6-7270-4af2-baa4-90e116127ad5}; !- Port 1

OS:Sizing:Zone,
  {33e7854a-b41e-48f2-a455-0099ec2b1bb4}, !- Handle
  {0cbfda92-615a-48a4-a3e5-efc7a9e99bd3}, !- Zone or ZoneList Name
  SupplyAirTemperature,                   !- Zone Cooling Design Supply Air Temperature Input Method
  14,                                     !- Zone Cooling Design Supply Air Temperature {C}
  11.11,                                  !- Zone Cooling Design Supply Air Temperature Difference {deltaC}
  SupplyAirTemperature,                   !- Zone Heating Design Supply Air Temperature Input Method
  40,                                     !- Zone Heating Design Supply Air Temperature {C}
  11.11,                                  !- Zone Heating Design Supply Air Temperature Difference {deltaC}
  0.0085,                                 !- Zone Cooling Design Supply Air Humidity Ratio {kg-H2O/kg-air}
  0.008,                                  !- Zone Heating Design Supply Air Humidity Ratio {kg-H2O/kg-air}
  ,                                       !- Zone Heating Sizing Factor
  ,                                       !- Zone Cooling Sizing Factor
  DesignDay,                              !- Cooling Design Air Flow Method
  ,                                       !- Cooling Design Air Flow Rate {m3/s}
  ,                                       !- Cooling Minimum Air Flow per Zone Floor Area {m3/s-m2}
  ,                                       !- Cooling Minimum Air Flow {m3/s}
  ,                                       !- Cooling Minimum Air Flow Fraction
  DesignDay,                              !- Heating Design Air Flow Method
  ,                                       !- Heating Design Air Flow Rate {m3/s}
  ,                                       !- Heating Maximum Air Flow per Zone Floor Area {m3/s-m2}
  ,                                       !- Heating Maximum Air Flow {m3/s}
  ,                                       !- Heating Maximum Air Flow Fraction
  ,                                       !- Design Zone Air Distribution Effectiveness in Cooling Mode
  ,                                       !- Design Zone Air Distribution Effectiveness in Heating Mode
  No,                                     !- Account for Dedicated Outdoor Air System
  NeutralSupplyAir,                       !- Dedicated Outdoor Air System Control Strategy
  autosize,                               !- Dedicated Outdoor Air Low Setpoint Temperature for Design {C}
  autosize;                               !- Dedicated Outdoor Air High Setpoint Temperature for Design {C}

OS:ZoneHVAC:EquipmentList,
  {80804d18-9495-44e4-9b41-218123d456f3}, !- Handle
  Zone HVAC Equipment List 2,             !- Name
  {0cbfda92-615a-48a4-a3e5-efc7a9e99bd3}, !- Thermal Zone
  ,                                       !- Load Distribution Scheme
  {7685dc8a-2053-4253-8b3c-d31ea0997abc}, !- Zone Equipment 1
  1,                                      !- Zone Equipment Cooling Sequence 1
  1;                                      !- Zone Equipment Heating or No-Load Sequence 1

OS:Space,
  {7fb57220-f590-4c35-aa1a-d5fa1413ad30}, !- Handle
  living space|unit 2|story 1,            !- Name
  {fed92083-f56a-4d9c-a37a-60ab86ee905a}, !- Space Type Name
  ,                                       !- Default Construction Set Name
  ,                                       !- Default Schedule Set Name
  -0,                                     !- Direction of Relative North {deg}
  0,                                      !- X Origin {m}
  0,                                      !- Y Origin {m}
  0,                                      !- Z Origin {m}
  ,                                       !- Building Story Name
  {0cbfda92-615a-48a4-a3e5-efc7a9e99bd3}, !- Thermal Zone Name
  ,                                       !- Part of Total Floor Area
  ,                                       !- Design Specification Outdoor Air Object Name
  {89d16ea9-7703-450d-8d27-29331fd436e4}; !- Building Unit Name

OS:Surface,
  {7869623a-07a1-47af-9108-08df2b6224ed}, !- Handle
  Surface 12,                             !- Name
  Floor,                                  !- Surface Type
  ,                                       !- Construction Name
  {7fb57220-f590-4c35-aa1a-d5fa1413ad30}, !- Space Name
  Foundation,                             !- Outside Boundary Condition
  ,                                       !- Outside Boundary Condition Object
  NoSun,                                  !- Sun Exposure
  NoWind,                                 !- Wind Exposure
  ,                                       !- View Factor to Ground
  ,                                       !- Number of Vertices
  6.46578440716979, -12.9315688143396, 0, !- X,Y,Z Vertex 1 {m}
  6.46578440716979, 0, 0,                 !- X,Y,Z Vertex 2 {m}
  12.9315688143396, 0, 0,                 !- X,Y,Z Vertex 3 {m}
  12.9315688143396, -12.9315688143396, 0; !- X,Y,Z Vertex 4 {m}

OS:Surface,
  {a0d5b5e6-405a-457d-a903-878f3f6fb48c}, !- Handle
  Surface 13,                             !- Name
  Wall,                                   !- Surface Type
  ,                                       !- Construction Name
  {7fb57220-f590-4c35-aa1a-d5fa1413ad30}, !- Space Name
  Surface,                                !- Outside Boundary Condition
  {784afd91-4c4f-4cbf-9d35-e524d95210d2}, !- Outside Boundary Condition Object
  NoSun,                                  !- Sun Exposure
  NoWind,                                 !- Wind Exposure
  ,                                       !- View Factor to Ground
  ,                                       !- Number of Vertices
  6.46578440716979, 0, 2.4384,            !- X,Y,Z Vertex 1 {m}
  6.46578440716979, 0, 0,                 !- X,Y,Z Vertex 2 {m}
  6.46578440716979, -12.9315688143396, 0, !- X,Y,Z Vertex 3 {m}
  6.46578440716979, -12.9315688143396, 2.4384; !- X,Y,Z Vertex 4 {m}

OS:Surface,
  {91dc929e-f13a-4149-890c-551a1e4e894d}, !- Handle
  Surface 14,                             !- Name
  Wall,                                   !- Surface Type
  ,                                       !- Construction Name
  {7fb57220-f590-4c35-aa1a-d5fa1413ad30}, !- Space Name
  Outdoors,                               !- Outside Boundary Condition
  ,                                       !- Outside Boundary Condition Object
  SunExposed,                             !- Sun Exposure
  WindExposed,                            !- Wind Exposure
  ,                                       !- View Factor to Ground
  ,                                       !- Number of Vertices
  12.9315688143396, 0, 2.4384,            !- X,Y,Z Vertex 1 {m}
  12.9315688143396, 0, 0,                 !- X,Y,Z Vertex 2 {m}
  6.46578440716979, 0, 0,                 !- X,Y,Z Vertex 3 {m}
  6.46578440716979, 0, 2.4384;            !- X,Y,Z Vertex 4 {m}

OS:Surface,
  {678d3cd2-add1-4b17-a245-ae920a562422}, !- Handle
  Surface 15,                             !- Name
  Wall,                                   !- Surface Type
  ,                                       !- Construction Name
  {7fb57220-f590-4c35-aa1a-d5fa1413ad30}, !- Space Name
  Surface,                                !- Outside Boundary Condition
  {6331577b-65aa-433c-a021-acaafad2be15}, !- Outside Boundary Condition Object
  NoSun,                                  !- Sun Exposure
  NoWind,                                 !- Wind Exposure
  ,                                       !- View Factor to Ground
  ,                                       !- Number of Vertices
  12.9315688143396, -12.9315688143396, 2.4384, !- X,Y,Z Vertex 1 {m}
  12.9315688143396, -12.9315688143396, 0, !- X,Y,Z Vertex 2 {m}
  12.9315688143396, 0, 0,                 !- X,Y,Z Vertex 3 {m}
  12.9315688143396, 0, 2.4384;            !- X,Y,Z Vertex 4 {m}

OS:Surface,
  {622bcd0e-de18-42da-b652-43a568f431a9}, !- Handle
  Surface 16,                             !- Name
  Wall,                                   !- Surface Type
  ,                                       !- Construction Name
  {7fb57220-f590-4c35-aa1a-d5fa1413ad30}, !- Space Name
  Outdoors,                               !- Outside Boundary Condition
  ,                                       !- Outside Boundary Condition Object
  SunExposed,                             !- Sun Exposure
  WindExposed,                            !- Wind Exposure
  ,                                       !- View Factor to Ground
  ,                                       !- Number of Vertices
  6.46578440716979, -12.9315688143396, 2.4384, !- X,Y,Z Vertex 1 {m}
  6.46578440716979, -12.9315688143396, 0, !- X,Y,Z Vertex 2 {m}
  12.9315688143396, -12.9315688143396, 0, !- X,Y,Z Vertex 3 {m}
  12.9315688143396, -12.9315688143396, 2.4384; !- X,Y,Z Vertex 4 {m}

OS:Surface,
  {b506f0ca-d7e7-4a06-9d77-2b3546300972}, !- Handle
  Surface 17,                             !- Name
  RoofCeiling,                            !- Surface Type
  ,                                       !- Construction Name
  {7fb57220-f590-4c35-aa1a-d5fa1413ad30}, !- Space Name
  Surface,                                !- Outside Boundary Condition
  {21e5ae8f-cacc-4f75-aa5a-fe4f9e45854d}, !- Outside Boundary Condition Object
  NoSun,                                  !- Sun Exposure
  NoWind,                                 !- Wind Exposure