!- NOTE: Auto-generated from /test/osw_files/SFA_4units_1story_SL_UA_3Beds_2Baths_Denver_Furnace_CentralAC.osw

OS:Version,
  {a1f24d4e-26e5-465d-90fa-35bb64070984}, !- Handle
  2.7.0;                                  !- Version Identifier

OS:Building,
  {3c7388a7-dc56-4d94-93f1-aec5dbfcf9ee}, !- Handle
  Building 1,                             !- Name
  ,                                       !- Building Sector Type
  0,                                      !- North Axis {deg}
  ,                                       !- Nominal Floor to Floor Height {m}
  ,                                       !- Space Type Name
  ,                                       !- Default Construction Set Name
  ,                                       !- Default Schedule Set Name
  1,                                      !- Standards Number of Stories
  1,                                      !- Standards Number of Above Ground Stories
  ,                                       !- Standards Template
  singlefamilyttached,                    !- Standards Building Type
  4;                                      !- Standards Number of Living Units

OS:Facility,
  {72d7377a-da50-49c5-bdd8-0663ccdfbdd5}; !- Handle

OS:Site,
  {9cf5d9e7-bb50-4902-8f58-385eafa6726c}, !- Handle
  Denver Intl Ap_CO_USA,                  !- Name
  39.83,                                  !- Latitude {deg}
  -104.65,                                !- Longitude {deg}
  -7,                                     !- Time Zone {hr}
  1650,                                   !- Elevation {m}
  ;                                       !- Terrain

OS:SimulationControl,
  {48a55af2-efe1-477c-a1e2-4d08e9de2886}, !- Handle
  ,                                       !- Do Zone Sizing Calculation
  ,                                       !- Do System Sizing Calculation
  ,                                       !- Do Plant Sizing Calculation
  No;                                     !- Run Simulation for Sizing Periods

OS:Sizing:Parameters,
  {5f61d292-87fe-4f7a-813d-d6891470e223}, !- Handle
  1.25,                                   !- Heating Sizing Factor
  1.15;                                   !- Cooling Sizing Factor

OS:Timestep,
  {5b1ac211-8f0b-4c61-9b5a-f39647dba708}, !- Handle
  6;                                      !- Number of Timesteps per Hour

OS:ShadowCalculation,
  {5fa80d8b-3b03-4c5a-b46c-763d26ecf39d}, !- Handle
  20,                                     !- Calculation Frequency
  200;                                    !- Maximum Figures in Shadow Overlap Calculations

OS:HeatBalanceAlgorithm,
  {a45baff3-2910-4ee0-9479-a0b829af8fa0}, !- Handle
  ConductionTransferFunction,             !- Algorithm
  200;                                    !- Surface Temperature Upper Limit {C}

OS:RunPeriod,
  {681e6028-6a70-4101-88fe-ce9bc113d7a5}, !- Handle
  Run Period 1,                           !- Name
  1,                                      !- Begin Month
  1,                                      !- Begin Day of Month
  12,                                     !- End Month
  31,                                     !- End Day of Month
  ,                                       !- Use Weather File Holidays and Special Days
  ,                                       !- Use Weather File Daylight Saving Period
  ,                                       !- Apply Weekend Holiday Rule
  ,                                       !- Use Weather File Rain Indicators
  ,                                       !- Use Weather File Snow Indicators
  ;                                       !- Number of Times Runperiod to be Repeated

OS:LifeCycleCost:Parameters,
  {952a7597-0b9e-4d21-a059-4fdb42c4ebf5}, !- Handle
  ,                                       !- Analysis Type
  ,                                       !- Discounting Convention
  ,                                       !- Inflation Approach
  ,                                       !- Real Discount Rate
  ,                                       !- Nominal Discount Rate
  ,                                       !- Inflation
  ,                                       !- Base Date Month
  ,                                       !- Base Date Year
  ,                                       !- Service Date Month
  ,                                       !- Service Date Year
  ;                                       !- Length of Study Period in Years

OS:SurfaceConvectionAlgorithm:Outside,
  {c07b737f-669a-49f5-9893-e96b688a6aef}, !- Handle
  DOE-2;                                  !- Algorithm

OS:SurfaceConvectionAlgorithm:Inside,
  {c902720e-933c-4651-a61c-f3b174cad8c7}, !- Handle
  TARP;                                   !- Algorithm

OS:ZoneCapacitanceMultiplier:ResearchSpecial,
  {8d977b8f-e5c4-4b1f-9fa5-88a51cfb7e6c}, !- Handle
  ,                                       !- Temperature Capacity Multiplier
  15,                                     !- Humidity Capacity Multiplier
  ;                                       !- Carbon Dioxide Capacity Multiplier

OS:ThermalZone,
  {04418cf8-6e42-4d9a-9ada-83dba5a33ab8}, !- Handle
  living zone,                            !- Name
  ,                                       !- Multiplier
  ,                                       !- Ceiling Height {m}
  ,                                       !- Volume {m3}
  ,                                       !- Floor Area {m2}
  ,                                       !- Zone Inside Convection Algorithm
  ,                                       !- Zone Outside Convection Algorithm
  ,                                       !- Zone Conditioning Equipment List Name
  {e423bfb0-a15b-499a-89ae-e7a0e8145b52}, !- Zone Air Inlet Port List
  {bb2d0379-3c26-49e4-9c46-311eacbeb378}, !- Zone Air Exhaust Port List
  {284c830b-c03f-42a6-abd9-ce36e86310e2}, !- Zone Air Node Name
  {f4e45856-9389-4943-b62d-adfeccfcb9e5}, !- Zone Return Air Port List
  ,                                       !- Primary Daylighting Control Name
  ,                                       !- Fraction of Zone Controlled by Primary Daylighting Control
  ,                                       !- Secondary Daylighting Control Name
  ,                                       !- Fraction of Zone Controlled by Secondary Daylighting Control
  ,                                       !- Illuminance Map Name
  ,                                       !- Group Rendering Name
  {5280eefc-8651-42a5-88c7-c891cf6292ff}, !- Thermostat Name
  No;                                     !- Use Ideal Air Loads

OS:Node,
  {50cf54ce-4b5e-499c-9a8f-38e0a34c6610}, !- Handle
  Node 1,                                 !- Name
  {284c830b-c03f-42a6-abd9-ce36e86310e2}, !- Inlet Port
  ;                                       !- Outlet Port

OS:Connection,
  {284c830b-c03f-42a6-abd9-ce36e86310e2}, !- Handle
  {5872fcd4-2343-45a5-8c14-a5d44d944df0}, !- Name
  {04418cf8-6e42-4d9a-9ada-83dba5a33ab8}, !- Source Object
  11,                                     !- Outlet Port
  {50cf54ce-4b5e-499c-9a8f-38e0a34c6610}, !- Target Object
  2;                                      !- Inlet Port

OS:PortList,
  {e423bfb0-a15b-499a-89ae-e7a0e8145b52}, !- Handle
  {6ee7e2ad-b3d4-437b-973b-1043238d2ea4}, !- Name
  {04418cf8-6e42-4d9a-9ada-83dba5a33ab8}, !- HVAC Component
  {4321000d-d434-45b4-b3c7-dbb6557544cb}; !- Port 1

OS:PortList,
  {bb2d0379-3c26-49e4-9c46-311eacbeb378}, !- Handle
  {bc47cca5-4804-4a60-9961-d6f6923defb4}, !- Name
  {04418cf8-6e42-4d9a-9ada-83dba5a33ab8}; !- HVAC Component

OS:PortList,
  {f4e45856-9389-4943-b62d-adfeccfcb9e5}, !- Handle
  {13107c5b-1c12-451f-b176-39298a29846b}, !- Name
  {04418cf8-6e42-4d9a-9ada-83dba5a33ab8}, !- HVAC Component
  {bfcfa88d-9dc2-4447-a2b6-729d402ed655}; !- Port 1

OS:Sizing:Zone,
  {de483dfc-731a-411e-a7ba-290e2d49e210}, !- Handle
  {04418cf8-6e42-4d9a-9ada-83dba5a33ab8}, !- Zone or ZoneList Name
  SupplyAirTemperature,                   !- Zone Cooling Design Supply Air Temperature Input Method
  14,                                     !- Zone Cooling Design Supply Air Temperature {C}
  11.11,                                  !- Zone Cooling Design Supply Air Temperature Difference {deltaC}
  SupplyAirTemperature,                   !- Zone Heating Design Supply Air Temperature Input Method
  40,                                     !- Zone Heating Design Supply Air Temperature {C}
  11.11,                                  !- Zone Heating Design Supply Air Temperature Difference {deltaC}
  0.0085,                                 !- Zone Cooling Design Supply Air Humidity Ratio {kg-H2O/kg-air}
  0.008,                                  !- Zone Heating Design Supply Air Humidity Ratio {kg-H2O/kg-air}
  ,                                       !- Zone Heating Sizing Factor
  ,                                       !- Zone Cooling Sizing Factor
  DesignDay,                              !- Cooling Design Air Flow Method
  ,                                       !- Cooling Design Air Flow Rate {m3/s}
  ,                                       !- Cooling Minimum Air Flow per Zone Floor Area {m3/s-m2}
  ,                                       !- Cooling Minimum Air Flow {m3/s}
  ,                                       !- Cooling Minimum Air Flow Fraction
  DesignDay,                              !- Heating Design Air Flow Method
  ,                                       !- Heating Design Air Flow Rate {m3/s}
  ,                                       !- Heating Maximum Air Flow per Zone Floor Area {m3/s-m2}
  ,                                       !- Heating Maximum Air Flow {m3/s}
  ,                                       !- Heating Maximum Air Flow Fraction
  ,                                       !- Design Zone Air Distribution Effectiveness in Cooling Mode
  ,                                       !- Design Zone Air Distribution Effectiveness in Heating Mode
  No,                                     !- Account for Dedicated Outdoor Air System
  NeutralSupplyAir,                       !- Dedicated Outdoor Air System Control Strategy
  autosize,                               !- Dedicated Outdoor Air Low Setpoint Temperature for Design {C}
  autosize;                               !- Dedicated Outdoor Air High Setpoint Temperature for Design {C}

OS:ZoneHVAC:EquipmentList,
  {d9367438-b058-419e-bbfd-315921b796e9}, !- Handle
  Zone HVAC Equipment List 1,             !- Name
  {04418cf8-6e42-4d9a-9ada-83dba5a33ab8}, !- Thermal Zone
  ,                                       !- Load Distribution Scheme
  {c363ef60-c8e0-413d-8b18-1a0abcc65dbf}, !- Zone Equipment 1
  1,                                      !- Zone Equipment Cooling Sequence 1
  1;                                      !- Zone Equipment Heating or No-Load Sequence 1

OS:Space,
  {b1bdf348-6361-41ee-9992-4369dcf75e74}, !- Handle
  living space,                           !- Name
  {84914567-602a-4fef-876e-454cfd27d3bf}, !- Space Type Name
  ,                                       !- Default Construction Set Name
  ,                                       !- Default Schedule Set Name
  ,                                       !- Direction of Relative North {deg}
  ,                                       !- X Origin {m}
  ,                                       !- Y Origin {m}
  ,                                       !- Z Origin {m}
  ,                                       !- Building Story Name
  {04418cf8-6e42-4d9a-9ada-83dba5a33ab8}, !- Thermal Zone Name
  ,                                       !- Part of Total Floor Area
  ,                                       !- Design Specification Outdoor Air Object Name
  {abe745bc-3892-44e9-b1fc-77f62ca5c4fa}; !- Building Unit Name

OS:Surface,
  {6a465c49-ea55-4c3c-9a27-97cfa9bc7f69}, !- Handle
  Surface 1,                              !- Name
  Floor,                                  !- Surface Type
  ,                                       !- Construction Name
  {b1bdf348-6361-41ee-9992-4369dcf75e74}, !- Space Name
  Foundation,                             !- Outside Boundary Condition
  ,                                       !- Outside Boundary Condition Object
  NoSun,                                  !- Sun Exposure
  NoWind,                                 !- Wind Exposure
  ,                                       !- View Factor to Ground
  ,                                       !- Number of Vertices
  0, -12.9315688143396, 0,                !- X,Y,Z Vertex 1 {m}
  0, 0, 0,                                !- X,Y,Z Vertex 2 {m}
  6.46578440716979, 0, 0,                 !- X,Y,Z Vertex 3 {m}
  6.46578440716979, -12.9315688143396, 0; !- X,Y,Z Vertex 4 {m}

OS:Surface,
  {7b24a76a-17e8-49b1-9a07-37116d225156}, !- Handle
  Surface 2,                              !- Name
  Wall,                                   !- Surface Type
  ,                                       !- Construction Name
  {b1bdf348-6361-41ee-9992-4369dcf75e74}, !- Space Name
  Outdoors,                               !- Outside Boundary Condition
  ,                                       !- Outside Boundary Condition Object
  SunExposed,                             !- Sun Exposure
  WindExposed,                            !- Wind Exposure
  ,                                       !- View Factor to Ground
  ,                                       !- Number of Vertices
  0, 0, 2.4384,                           !- X,Y,Z Vertex 1 {m}
  0, 0, 0,                                !- X,Y,Z Vertex 2 {m}
  0, -12.9315688143396, 0,                !- X,Y,Z Vertex 3 {m}
  0, -12.9315688143396, 2.4384;           !- X,Y,Z Vertex 4 {m}

OS:Surface,
  {d7e2d216-435e-4b68-95e1-c4f87d53ce49}, !- Handle
  Surface 3,                              !- Name
  Wall,                                   !- Surface Type
  ,                                       !- Construction Name
  {b1bdf348-6361-41ee-9992-4369dcf75e74}, !- Space Name
  Outdoors,                               !- Outside Boundary Condition
  ,                                       !- Outside Boundary Condition Object
  SunExposed,                             !- Sun Exposure
  WindExposed,                            !- Wind Exposure
  ,                                       !- View Factor to Ground
  ,                                       !- Number of Vertices
  6.46578440716979, 0, 2.4384,            !- X,Y,Z Vertex 1 {m}
  6.46578440716979, 0, 0,                 !- X,Y,Z Vertex 2 {m}
  0, 0, 0,                                !- X,Y,Z Vertex 3 {m}
  0, 0, 2.4384;                           !- X,Y,Z Vertex 4 {m}

OS:Surface,
  {3abc5407-0c17-40b4-a2bd-3fb9e8bc18ae}, !- Handle
  Surface 4,                              !- Name
  Wall,                                   !- Surface Type
  ,                                       !- Construction Name
  {b1bdf348-6361-41ee-9992-4369dcf75e74}, !- Space Name
  Surface,                                !- Outside Boundary Condition
  {0d54de21-311f-4e44-b0dc-74652fc30cd4}, !- Outside Boundary Condition Object
  NoSun,                                  !- Sun Exposure
  NoWind,                                 !- Wind Exposure
  ,                                       !- View Factor to Ground
  ,                                       !- Number of Vertices
  6.46578440716979, -12.9315688143396, 2.4384, !- X,Y,Z Vertex 1 {m}
  6.46578440716979, -12.9315688143396, 0, !- X,Y,Z Vertex 2 {m}
  6.46578440716979, 0, 0,                 !- X,Y,Z Vertex 3 {m}
  6.46578440716979, 0, 2.4384;            !- X,Y,Z Vertex 4 {m}

OS:Surface,
  {a0f905a1-5198-4130-b1d4-d8463a21c1c6}, !- Handle
  Surface 5,                              !- Name
  Wall,                                   !- Surface Type
  ,                                       !- Construction Name
  {b1bdf348-6361-41ee-9992-4369dcf75e74}, !- Space Name
  Outdoors,                               !- Outside Boundary Condition
  ,                                       !- Outside Boundary Condition Object
  SunExposed,                             !- Sun Exposure
  WindExposed,                            !- Wind Exposure
  ,                                       !- View Factor to Ground
  ,                                       !- Number of Vertices
  0, -12.9315688143396, 2.4384,           !- X,Y,Z Vertex 1 {m}
  0, -12.9315688143396, 0,                !- X,Y,Z Vertex 2 {m}
  6.46578440716979, -12.9315688143396, 0, !- X,Y,Z Vertex 3 {m}
  6.46578440716979, -12.9315688143396, 2.4384; !- X,Y,Z Vertex 4 {m}

OS:Surface,
  {4d1075f1-a500-4b9a-9aee-3d8b89b28cbc}, !- Handle
  Surface 6,                              !- Name
  RoofCeiling,                            !- Surface Type
  ,                                       !- Construction Name
  {b1bdf348-6361-41ee-9992-4369dcf75e74}, !- Space Name
  Surface,                                !- Outside Boundary Condition
  {d52cc460-06c9-4933-ba7a-2632f30c257f}, !- Outside Boundary Condition Object
  NoSun,                                  !- Sun Exposure
  NoWind,                                 !- Wind Exposure
  ,                                       !- View Factor to Ground
  ,                                       !- Number of Vertices
  6.46578440716979, -12.9315688143396, 2.4384, !- X,Y,Z Vertex 1 {m}
  6.46578440716979, 0, 2.4384,            !- X,Y,Z Vertex 2 {m}
  0, 0, 2.4384,                           !- X,Y,Z Vertex 3 {m}
  0, -12.9315688143396, 2.4384;           !- X,Y,Z Vertex 4 {m}

OS:SpaceType,
  {84914567-602a-4fef-876e-454cfd27d3bf}, !- Handle
  Space Type 1,                           !- Name
  ,                                       !- Default Construction Set Name
  ,                                       !- Default Schedule Set Name
  ,                                       !- Group Rendering Name
  ,                                       !- Design Specification Outdoor Air Object Name
  ,                                       !- Standards Template
  ,                                       !- Standards Building Type
  living;                                 !- Standards Space Type

OS:ThermalZone,
  {5e125e23-c924-4c78-a90b-26cc99538eeb}, !- Handle
  living zone|unit 2,                     !- Name
  ,                                       !- Multiplier
  ,                                       !- Ceiling Height {m}
  ,                                       !- Volume {m3}
  ,                                       !- Floor Area {m2}
  ,                                       !- Zone Inside Convection Algorithm
  ,                                       !- Zone Outside Convection Algorithm
  ,                                       !- Zone Conditioning Equipment List Name
  {9773482b-1047-4b13-a49c-7347f24ba40d}, !- Zone Air Inlet Port List
  {dc8a7302-0ce2-4942-9425-bb2cbfd9210c}, !- Zone Air Exhaust Port List
  {fab29941-2d11-4b73-8293-e9bfcf29ad37}, !- Zone Air Node Name
  {9d343708-f6fb-4a52-969c-77c96bc1e606}, !- Zone Return Air Port List
  ,                                       !- Primary Daylighting Control Name
  ,                                       !- Fraction of Zone Controlled by Primary Daylighting Control
  ,                                       !- Secondary Daylighting Control Name
  ,                                       !- Fraction of Zone Controlled by Secondary Daylighting Control
  ,                                       !- Illuminance Map Name
  ,                                       !- Group Rendering Name
  {808073c1-436e-4cf8-a3bf-f4d30808115e}, !- Thermostat Name
  No;                                     !- Use Ideal Air Loads

OS:Node,
  {aa77810d-a168-4c01-ad3f-54fbd068dc47}, !- Handle
  Node 2,                                 !- Name
  {fab29941-2d11-4b73-8293-e9bfcf29ad37}, !- Inlet Port
  ;                                       !- Outlet Port

OS:Connection,
  {fab29941-2d11-4b73-8293-e9bfcf29ad37}, !- Handle
  {84fdf520-0bef-49a2-af5b-be8cdc87700a}, !- Name
  {5e125e23-c924-4c78-a90b-26cc99538eeb}, !- Source Object
  11,                                     !- Outlet Port
  {aa77810d-a168-4c01-ad3f-54fbd068dc47}, !- Target Object
  2;                                      !- Inlet Port

OS:PortList,
  {9773482b-1047-4b13-a49c-7347f24ba40d}, !- Handle
  {1180fc0d-6880-4e26-ba41-45b0f4c183dd}, !- Name
  {5e125e23-c924-4c78-a90b-26cc99538eeb}, !- HVAC Component
  {d77ba39e-c375-4441-a72f-522b835e94b4}; !- Port 1

OS:PortList,
  {dc8a7302-0ce2-4942-9425-bb2cbfd9210c}, !- Handle
  {7214a582-e45f-459c-9125-16d986b47579}, !- Name
  {5e125e23-c924-4c78-a90b-26cc99538eeb}; !- HVAC Component

OS:PortList,
  {9d343708-f6fb-4a52-969c-77c96bc1e606}, !- Handle
  {59db0479-82dd-47bb-bc25-be574ac5cfa4}, !- Name
  {5e125e23-c924-4c78-a90b-26cc99538eeb}, !- HVAC Component
  {b487c138-1ac3-4417-8250-c7c610ad2736}; !- Port 1

OS:Sizing:Zone,
  {97b4798a-7db0-4335-8644-0712864de64e}, !- Handle
  {5e125e23-c924-4c78-a90b-26cc99538eeb}, !- Zone or ZoneList Name
  SupplyAirTemperature,                   !- Zone Cooling Design Supply Air Temperature Input Method
  14,                                     !- Zone Cooling Design Supply Air Temperature {C}
  11.11,                                  !- Zone Cooling Design Supply Air Temperature Difference {deltaC}
  SupplyAirTemperature,                   !- Zone Heating Design Supply Air Temperature Input Method
  40,                                     !- Zone Heating Design Supply Air Temperature {C}
  11.11,                                  !- Zone Heating Design Supply Air Temperature Difference {deltaC}
  0.0085,                                 !- Zone Cooling Design Supply Air Humidity Ratio {kg-H2O/kg-air}
  0.008,                                  !- Zone Heating Design Supply Air Humidity Ratio {kg-H2O/kg-air}
  ,                                       !- Zone Heating Sizing Factor
  ,                                       !- Zone Cooling Sizing Factor
  DesignDay,                              !- Cooling Design Air Flow Method
  ,                                       !- Cooling Design Air Flow Rate {m3/s}
  ,                                       !- Cooling Minimum Air Flow per Zone Floor Area {m3/s-m2}
  ,                                       !- Cooling Minimum Air Flow {m3/s}
  ,                                       !- Cooling Minimum Air Flow Fraction
  DesignDay,                              !- Heating Design Air Flow Method
  ,                                       !- Heating Design Air Flow Rate {m3/s}
  ,                                       !- Heating Maximum Air Flow per Zone Floor Area {m3/s-m2}
  ,                                       !- Heating Maximum Air Flow {m3/s}
  ,                                       !- Heating Maximum Air Flow Fraction
  ,                                       !- Design Zone Air Distribution Effectiveness in Cooling Mode
  ,                                       !- Design Zone Air Distribution Effectiveness in Heating Mode
  No,                                     !- Account for Dedicated Outdoor Air System
  NeutralSupplyAir,                       !- Dedicated Outdoor Air System Control Strategy
  autosize,                               !- Dedicated Outdoor Air Low Setpoint Temperature for Design {C}
  autosize;                               !- Dedicated Outdoor Air High Setpoint Temperature for Design {C}

OS:ZoneHVAC:EquipmentList,
  {7dffb488-e527-4434-ac74-5d62ba616588}, !- Handle
  Zone HVAC Equipment List 2,             !- Name
  {5e125e23-c924-4c78-a90b-26cc99538eeb}, !- Thermal Zone
  ,                                       !- Load Distribution Scheme
  {dde3fe97-e3d0-41b8-9a21-59f24f0f2eed}, !- Zone Equipment 1
  1,                                      !- Zone Equipment Cooling Sequence 1
  1;                                      !- Zone Equipment Heating or No-Load Sequence 1

OS:Space,
  {4e17379c-c2dc-4460-aaa1-266686cf281b}, !- Handle
  living space|unit 2|story 1,            !- Name
  {84914567-602a-4fef-876e-454cfd27d3bf}, !- Space Type Name
  ,                                       !- Default Construction Set Name
  ,                                       !- Default Schedule Set Name
  -0,                                     !- Direction of Relative North {deg}
  0,                                      !- X Origin {m}
  0,                                      !- Y Origin {m}
  0,                                      !- Z Origin {m}
  ,                                       !- Building Story Name
  {5e125e23-c924-4c78-a90b-26cc99538eeb}, !- Thermal Zone Name
  ,                                       !- Part of Total Floor Area
  ,                                       !- Design Specification Outdoor Air Object Name
  {5eda915d-8e43-4a65-9024-5941e089d9a6}; !- Building Unit Name

OS:Surface,
  {c5e4670c-4143-47b7-9b3a-14abfb0b5be4}, !- Handle
  Surface 12,                             !- Name
  Floor,                                  !- Surface Type
  ,                                       !- Construction Name
  {4e17379c-c2dc-4460-aaa1-266686cf281b}, !- Space Name
  Foundation,                             !- Outside Boundary Condition
  ,                                       !- Outside Boundary Condition Object
  NoSun,                                  !- Sun Exposure
  NoWind,                                 !- Wind Exposure
  ,                                       !- View Factor to Ground
  ,                                       !- Number of Vertices
  6.46578440716979, -12.9315688143396, 0, !- X,Y,Z Vertex 1 {m}
  6.46578440716979, 0, 0,                 !- X,Y,Z Vertex 2 {m}
  12.9315688143396, 0, 0,                 !- X,Y,Z Vertex 3 {m}
  12.9315688143396, -12.9315688143396, 0; !- X,Y,Z Vertex 4 {m}

OS:Surface,
  {0d54de21-311f-4e44-b0dc-74652fc30cd4}, !- Handle
  Surface 13,                             !- Name
  Wall,                                   !- Surface Type
  ,                                       !- Construction Name
  {4e17379c-c2dc-4460-aaa1-266686cf281b}, !- Space Name
  Surface,                                !- Outside Boundary Condition
  {3abc5407-0c17-40b4-a2bd-3fb9e8bc18ae}, !- Outside Boundary Condition Object
  NoSun,                                  !- Sun Exposure
  NoWind,                                 !- Wind Exposure
  ,                                       !- View Factor to Ground
  ,                                       !- Number of Vertices
  6.46578440716979, 0, 2.4384,            !- X,Y,Z Vertex 1 {m}
  6.46578440716979, 0, 0,                 !- X,Y,Z Vertex 2 {m}
  6.46578440716979, -12.9315688143396, 0, !- X,Y,Z Vertex 3 {m}
  6.46578440716979, -12.9315688143396, 2.4384; !- X,Y,Z Vertex 4 {m}

OS:Surface,
  {380bbbee-c4c1-4869-9e2a-d1f47843a6ff}, !- Handle
  Surface 14,                             !- Name
  Wall,                                   !- Surface Type
  ,                                       !- Construction Name
  {4e17379c-c2dc-4460-aaa1-266686cf281b}, !- Space Name
  Surface,                                !- Outside Boundary Condition
  {56636174-4a6a-438a-9921-d8a7fd62f906}, !- Outside Boundary Condition Object
  NoSun,                                  !- Sun Exposure
  NoWind,                                 !- Wind Exposure
  ,                                       !- View Factor to Ground
  ,                                       !- Number of Vertices
  12.9315688143396, -12.9315688143396, 2.4384, !- X,Y,Z Vertex 1 {m}
  12.9315688143396, -12.9315688143396, 0, !- X,Y,Z Vertex 2 {m}
  12.9315688143396, 0, 0,                 !- X,Y,Z Vertex 3 {m}
  12.9315688143396, 0, 2.4384;            !- X,Y,Z Vertex 4 {m}

OS:Surface,
  {777afecf-21ab-4972-8c10-9e508a8eb276}, !- Handle
  Surface 15,                             !- Name
  Wall,                                   !- Surface Type
  ,                                       !- Construction Name
  {4e17379c-c2dc-4460-aaa1-266686cf281b}, !- Space Name
  Outdoors,                               !- Outside Boundary Condition
  ,                                       !- Outside Boundary Condition Object
  SunExposed,                             !- Sun Exposure
  WindExposed,                            !- Wind Exposure
  ,                                       !- View Factor to Ground
  ,                                       !- Number of Vertices
  6.46578440716979, -12.9315688143396, 2.4384, !- X,Y,Z Vertex 1 {m}
  6.46578440716979, -12.9315688143396, 0, !- X,Y,Z Vertex 2 {m}
  12.9315688143396, -12.9315688143396, 0, !- X,Y,Z Vertex 3 {m}
  12.9315688143396, -12.9315688143396, 2.4384; !- X,Y,Z Vertex 4 {m}

OS:Surface,
  {cb56dc5b-0b34-4fc2-8e41-6db8425647bf}, !- Handle
  Surface 16,                             !- Name
  Wall,                                   !- Surface Type
  ,                                       !- Construction Name
  {4e17379c-c2dc-4460-aaa1-266686cf281b}, !- Space Name
  Outdoors,                               !- Outside Boundary Condition
  ,                                       !- Outside Boundary Condition Object
  SunExposed,                             !- Sun Exposure
  WindExposed,                            !- Wind Exposure
  ,                                       !- View Factor to Ground
  ,                                       !- Number of Vertices
  12.9315688143396, 0, 2.4384,            !- X,Y,Z Vertex 1 {m}
  12.9315688143396, 0, 0,                 !- X,Y,Z Vertex 2 {m}
  6.46578440716979, 0, 0,                 !- X,Y,Z Vertex 3 {m}
  6.46578440716979, 0, 2.4384;            !- X,Y,Z Vertex 4 {m}

OS:Surface,
  {a353c963-7945-4d8d-afa2-c507779b13a8}, !- Handle
  Surface 17,                             !- Name
  RoofCeiling,                            !- Surface Type
  ,                                       !- Construction Name
  {4e17379c-c2dc-4460-aaa1-266686cf281b}, !- Space Name
  Surface,                                !- Outside Boundary Condition
  {d27a3a1b-89bf-4d48-9653-76703d8690d7}, !- Outside Boundary Condition Object
  NoSun,                                  !- Sun Exposure
  NoWind,                                 !- Wind Exposure