!- NOTE: Auto-generated from /test/osw_files/SFD_HVACSizing_Equip_MSHP_BB_Autosize.osw

OS:Version,
  {f19db4fa-bed7-4070-a0e8-c0819286172a}, !- Handle
  2.7.0;                                  !- Version Identifier

OS:Building,
  {8047e2f0-3e82-4618-9d72-9a5ea6b00f3f}, !- Handle
  Building 1,                             !- Name
  ,                                       !- Building Sector Type
  22.5,                                   !- North Axis {deg}
  ,                                       !- Nominal Floor to Floor Height {m}
  ,                                       !- Space Type Name
  ,                                       !- Default Construction Set Name
  ,                                       !- Default Schedule Set Name
  4,                                      !- Standards Number of Stories
  3,                                      !- Standards Number of Above Ground Stories
  ,                                       !- Standards Template
  singlefamilydetached,                   !- Standards Building Type
  1;                                      !- Standards Number of Living Units

OS:Facility,
  {1c022529-c3b3-4303-ae26-2d0056d1a05f}; !- Handle

OS:Site,
  {97b9bb19-07e1-4b4f-be5d-67db3a7d79b9}, !- Handle
  Denver Intl Ap_CO_USA,                  !- Name
  39.83,                                  !- Latitude {deg}
  -104.65,                                !- Longitude {deg}
  -7,                                     !- Time Zone {hr}
  1650,                                   !- Elevation {m}
  Suburbs;                                !- Terrain

OS:SimulationControl,
  {51c6d0c5-5d84-44ab-9cb0-a0af28d5daba}, !- Handle
  ,                                       !- Do Zone Sizing Calculation
  ,                                       !- Do System Sizing Calculation
  ,                                       !- Do Plant Sizing Calculation
  No;                                     !- Run Simulation for Sizing Periods

OS:Sizing:Parameters,
  {274c98c4-8436-40bb-a488-b54294d32a36}, !- Handle
  1.25,                                   !- Heating Sizing Factor
  1.15;                                   !- Cooling Sizing Factor

OS:Timestep,
  {6b088aa3-08bc-4a8b-8fa9-951980ae04d5}, !- Handle
  6;                                      !- Number of Timesteps per Hour

OS:ShadowCalculation,
  {54cf9824-2709-4d41-b830-374d9bcfec14}, !- Handle
  20,                                     !- Calculation Frequency
  200;                                    !- Maximum Figures in Shadow Overlap Calculations

OS:HeatBalanceAlgorithm,
  {0d5594b2-b19f-4a83-9cd9-61c7a0ce3bdf}, !- Handle
  MoisturePenetrationDepthConductionTransferFunction, !- Algorithm
  200;                                    !- Surface Temperature Upper Limit {C}

OS:RunPeriod,
  {1142be6a-b3fa-4e78-a7d8-a5290447d49e}, !- Handle
  Run Period 1,                           !- Name
  1,                                      !- Begin Month
  1,                                      !- Begin Day of Month
  12,                                     !- End Month
  31,                                     !- End Day of Month
  ,                                       !- Use Weather File Holidays and Special Days
  ,                                       !- Use Weather File Daylight Saving Period
  ,                                       !- Apply Weekend Holiday Rule
  ,                                       !- Use Weather File Rain Indicators
  ,                                       !- Use Weather File Snow Indicators
  ;                                       !- Number of Times Runperiod to be Repeated

OS:LifeCycleCost:Parameters,
  {9dbe1d91-8815-4c62-84f9-cfe915848048}, !- Handle
  ,                                       !- Analysis Type
  ,                                       !- Discounting Convention
  ,                                       !- Inflation Approach
  ,                                       !- Real Discount Rate
  ,                                       !- Nominal Discount Rate
  ,                                       !- Inflation
  ,                                       !- Base Date Month
  ,                                       !- Base Date Year
  ,                                       !- Service Date Month
  ,                                       !- Service Date Year
  ;                                       !- Length of Study Period in Years

OS:SurfaceConvectionAlgorithm:Outside,
  {4503e8bf-5670-4109-a149-82e6b0791d86}, !- Handle
  DOE-2;                                  !- Algorithm

OS:SurfaceConvectionAlgorithm:Inside,
  {e092c21c-f18c-46a8-9542-4529fccdf905}, !- Handle
  TARP;                                   !- Algorithm

OS:ZoneCapacitanceMultiplier:ResearchSpecial,
  {2e8a280e-03ab-42fc-b476-00a34cf8eb3e}, !- Handle
  ,                                       !- Temperature Capacity Multiplier
  1,                                      !- Humidity Capacity Multiplier
  ;                                       !- Carbon Dioxide Capacity Multiplier

OS:WeatherFile,
  {bfe9dc70-0098-4a62-bcdd-06ec76d70cec}, !- Handle
  Denver Intl Ap,                         !- City
  CO,                                     !- State Province Region
  USA,                                    !- Country
  TMY3,                                   !- Data Source
  725650,                                 !- WMO Number
  39.83,                                  !- Latitude {deg}
  -104.65,                                !- Longitude {deg}
  -7,                                     !- Time Zone {hr}
  1650,                                   !- Elevation {m}
  file:../weather/USA_CO_Denver.Intl.AP.725650_TMY3.epw, !- Url
  E23378AA;                               !- Checksum

OS:AdditionalProperties,
  {2f0cc54f-b0c8-4ebc-a56c-ccbc8ef8f47d}, !- Handle
  {bfe9dc70-0098-4a62-bcdd-06ec76d70cec}, !- Object Name
  EPWHeaderCity,                          !- Feature Name 1
  String,                                 !- Feature Data Type 1
  Denver Intl Ap,                         !- Feature Value 1
  EPWHeaderState,                         !- Feature Name 2
  String,                                 !- Feature Data Type 2
  CO,                                     !- Feature Value 2
  EPWHeaderCountry,                       !- Feature Name 3
  String,                                 !- Feature Data Type 3
  USA,                                    !- Feature Value 3
  EPWHeaderDataSource,                    !- Feature Name 4
  String,                                 !- Feature Data Type 4
  TMY3,                                   !- Feature Value 4
  EPWHeaderStation,                       !- Feature Name 5
  String,                                 !- Feature Data Type 5
  725650,                                 !- Feature Value 5
  EPWHeaderLatitude,                      !- Feature Name 6
  Double,                                 !- Feature Data Type 6
  39.829999999999998,                     !- Feature Value 6
  EPWHeaderLongitude,                     !- Feature Name 7
  Double,                                 !- Feature Data Type 7
  -104.65000000000001,                    !- Feature Value 7
  EPWHeaderTimezone,                      !- Feature Name 8
  Double,                                 !- Feature Data Type 8
  -7,                                     !- Feature Value 8
  EPWHeaderAltitude,                      !- Feature Name 9
  Double,                                 !- Feature Data Type 9
  5413.3858267716532,                     !- Feature Value 9
  EPWHeaderLocalPressure,                 !- Feature Name 10
  Double,                                 !- Feature Data Type 10
  0.81937567683596546,                    !- Feature Value 10
  EPWHeaderRecordsPerHour,                !- Feature Name 11
  Double,                                 !- Feature Data Type 11
  0,                                      !- Feature Value 11
  EPWDataAnnualAvgDrybulb,                !- Feature Name 12
  Double,                                 !- Feature Data Type 12
  51.575616438356228,                     !- Feature Value 12
  EPWDataAnnualMinDrybulb,                !- Feature Name 13
  Double,                                 !- Feature Data Type 13
  -2.9200000000000017,                    !- Feature Value 13
  EPWDataAnnualMaxDrybulb,                !- Feature Name 14
  Double,                                 !- Feature Data Type 14
  104,                                    !- Feature Value 14
  EPWDataCDD50F,                          !- Feature Name 15
  Double,                                 !- Feature Data Type 15
  3072.2925000000005,                     !- Feature Value 15
  EPWDataCDD65F,                          !- Feature Name 16
  Double,                                 !- Feature Data Type 16
  883.62000000000035,                     !- Feature Value 16
  EPWDataHDD50F,                          !- Feature Name 17
  Double,                                 !- Feature Data Type 17
  2497.1925000000001,                     !- Feature Value 17
  EPWDataHDD65F,                          !- Feature Name 18
  Double,                                 !- Feature Data Type 18
  5783.5200000000013,                     !- Feature Value 18
  EPWDataAnnualAvgWindspeed,              !- Feature Name 19
  Double,                                 !- Feature Data Type 19
  3.9165296803649667,                     !- Feature Value 19
  EPWDataMonthlyAvgDrybulbs,              !- Feature Name 20
  String,                                 !- Feature Data Type 20
  33.4191935483871&#4431.90142857142857&#4443.02620967741937&#4442.48624999999999&#4459.877741935483854&#4473.57574999999997&#4472.07975806451608&#4472.70008064516134&#4466.49200000000006&#4450.079112903225806&#4437.218250000000005&#4434.582177419354835, !- Feature Value 20
  EPWDataGroundMonthlyTemps,              !- Feature Name 21
  String,                                 !- Feature Data Type 21
  44.08306285945173&#4440.89570904991865&#4440.64045432632048&#4442.153016571250646&#4448.225111118704206&#4454.268919273837525&#4459.508577937551024&#4462.82777283423508&#4463.10975667174995&#4460.41014950381947&#4455.304105212311526&#4449.445696474514364, !- Feature Value 21
  EPWDataWSF,                             !- Feature Name 22
  Double,                                 !- Feature Data Type 22
  0.58999999999999997,                    !- Feature Value 22
  EPWDataMonthlyAvgDailyHighDrybulbs,     !- Feature Name 23
  String,                                 !- Feature Data Type 23
  47.41032258064516&#4446.58642857142857&#4455.15032258064517&#4453.708&#4472.80193548387098&#4488.67600000000002&#4486.1858064516129&#4485.87225806451613&#4482.082&#4463.18064516129033&#4448.73400000000001&#4448.87935483870968, !- Feature Value 23
  EPWDataMonthlyAvgDailyLowDrybulbs,      !- Feature Name 24
  String,                                 !- Feature Data Type 24
  19.347741935483874&#4419.856428571428573&#4430.316129032258065&#4431.112&#4447.41612903225806&#4457.901999999999994&#4459.063870967741934&#4460.956774193548384&#4452.352000000000004&#4438.41612903225806&#4427.002000000000002&#4423.02903225806451, !- Feature Value 24
  EPWDesignHeatingDrybulb,                !- Feature Name 25
  Double,                                 !- Feature Data Type 25
  12.02,                                  !- Feature Value 25
  EPWDesignHeatingWindspeed,              !- Feature Name 26
  Double,                                 !- Feature Data Type 26
  2.8062500000000004,                     !- Feature Value 26
  EPWDesignCoolingDrybulb,                !- Feature Name 27
  Double,                                 !- Feature Data Type 27
  91.939999999999998,                     !- Feature Value 27
  EPWDesignCoolingWetbulb,                !- Feature Name 28
  Double,                                 !- Feature Data Type 28
  59.95131430195849,                      !- Feature Value 28
  EPWDesignCoolingHumidityRatio,          !- Feature Name 29
  Double,                                 !- Feature Data Type 29
  0.0059161086834698092,                  !- Feature Value 29
  EPWDesignCoolingWindspeed,              !- Feature Name 30
  Double,                                 !- Feature Data Type 30
  3.7999999999999989,                     !- Feature Value 30
  EPWDesignDailyTemperatureRange,         !- Feature Name 31
  Double,                                 !- Feature Data Type 31
  24.915483870967748,                     !- Feature Value 31
  EPWDesignDehumidDrybulb,                !- Feature Name 32
  Double,                                 !- Feature Data Type 32
  67.996785714285721,                     !- Feature Value 32
  EPWDesignDehumidHumidityRatio,          !- Feature Name 33
  Double,                                 !- Feature Data Type 33
  0.012133744170488724,                   !- Feature Value 33
  EPWDesignCoolingDirectNormal,           !- Feature Name 34
  Double,                                 !- Feature Data Type 34
  985,                                    !- Feature Value 34
  EPWDesignCoolingDiffuseHorizontal,      !- Feature Name 35
  Double,                                 !- Feature Data Type 35
  84;                                     !- Feature Value 35

OS:YearDescription,
  {a4fe34d1-e692-482d-9fe0-e76050205506}, !- Handle
  ,                                       !- Calendar Year
  Monday;                                 !- Day of Week for Start Day

OS:ClimateZones,
  {a9385ce5-1cfe-4e54-8ad4-56d98c5e91d9}, !- Handle
  ,                                       !- Active Institution
  ,                                       !- Active Year
  ,                                       !- Climate Zone Institution Name 1
  ,                                       !- Climate Zone Document Name 1
  ,                                       !- Climate Zone Document Year 1
  ,                                       !- Climate Zone Value 1
  Building America,                       !- Climate Zone Institution Name 2
  ,                                       !- Climate Zone Document Name 2
  0,                                      !- Climate Zone Document Year 2
  Cold;                                   !- Climate Zone Value 2

OS:Site:WaterMainsTemperature,
  {84bb06f1-9b15-4a99-add8-4b91f297fa54}, !- Handle
  Correlation,                            !- Calculation Method
  ,                                       !- Temperature Schedule Name
  10.8753424657535,                       !- Annual Average Outdoor Air Temperature {C}
  23.1524007936508;                       !- Maximum Difference In Monthly Average Outdoor Air Temperatures {deltaC}

OS:RunPeriodControl:DaylightSavingTime,
  {88204495-b1d7-4c4f-a5e6-6dff01e97bce}, !- Handle
  4/7,                                    !- Start Date
  10/26;                                  !- End Date

OS:Site:GroundTemperature:Deep,
  {2ff3b515-46d5-491f-9bf2-2c2f4b126470}, !- Handle
  10.8753424657535,                       !- January Deep Ground Temperature {C}
  10.8753424657535,                       !- February Deep Ground Temperature {C}
  10.8753424657535,                       !- March Deep Ground Temperature {C}
  10.8753424657535,                       !- April Deep Ground Temperature {C}
  10.8753424657535,                       !- May Deep Ground Temperature {C}
  10.8753424657535,                       !- June Deep Ground Temperature {C}
  10.8753424657535,                       !- July Deep Ground Temperature {C}
  10.8753424657535,                       !- August Deep Ground Temperature {C}
  10.8753424657535,                       !- September Deep Ground Temperature {C}
  10.8753424657535,                       !- October Deep Ground Temperature {C}
  10.8753424657535,                       !- November Deep Ground Temperature {C}
  10.8753424657535;                       !- December Deep Ground Temperature {C}

OS:ThermalZone,
  {831d49ce-5f77-47ed-8327-4f38b5648a87}, !- Handle
  living zone,                            !- Name
  ,                                       !- Multiplier
  ,                                       !- Ceiling Height {m}
  ,                                       !- Volume {m3}
  ,                                       !- Floor Area {m2}
  ,                                       !- Zone Inside Convection Algorithm
  ,                                       !- Zone Outside Convection Algorithm
  ,                                       !- Zone Conditioning Equipment List Name
  {bd526aa9-181b-4e46-85fe-f53b6d9794b0}, !- Zone Air Inlet Port List
  {48746568-2497-458b-8287-2ab21abe47f8}, !- Zone Air Exhaust Port List
  {4afa10b8-473a-4ff8-b469-f4eae09c2235}, !- Zone Air Node Name
  {cccf9690-130f-4990-8671-2507f2aa2832}, !- Zone Return Air Port List
  ,                                       !- Primary Daylighting Control Name
  ,                                       !- Fraction of Zone Controlled by Primary Daylighting Control
  ,                                       !- Secondary Daylighting Control Name
  ,                                       !- Fraction of Zone Controlled by Secondary Daylighting Control
  ,                                       !- Illuminance Map Name
  ,                                       !- Group Rendering Name
  {0955cd96-3cc9-49ae-ad57-0b5ad9895935}, !- Thermostat Name
  No;                                     !- Use Ideal Air Loads

OS:Node,
  {264f2bba-247a-4ee6-b322-30ee093e043e}, !- Handle
  Node 1,                                 !- Name
  {4afa10b8-473a-4ff8-b469-f4eae09c2235}, !- Inlet Port
  ;                                       !- Outlet Port

OS:Connection,
  {4afa10b8-473a-4ff8-b469-f4eae09c2235}, !- Handle
  {066b1d31-2064-4e90-91e9-79fea3f74eab}, !- Name
  {831d49ce-5f77-47ed-8327-4f38b5648a87}, !- Source Object
  11,                                     !- Outlet Port
  {264f2bba-247a-4ee6-b322-30ee093e043e}, !- Target Object
  2;                                      !- Inlet Port

OS:PortList,
  {bd526aa9-181b-4e46-85fe-f53b6d9794b0}, !- Handle
  {dc8dae73-3af1-49a9-bbf8-44991d0bcd6e}, !- Name
  {831d49ce-5f77-47ed-8327-4f38b5648a87}, !- HVAC Component
  {71836b55-f74c-4d60-ab86-b9d7d81ec57f}; !- Port 1

OS:PortList,
  {48746568-2497-458b-8287-2ab21abe47f8}, !- Handle
  {3f1886c1-5b49-45c1-bf83-e65c1d4a1169}, !- Name
  {831d49ce-5f77-47ed-8327-4f38b5648a87}, !- HVAC Component
  {95cbfe64-06c2-41c8-99d0-8b48a991beae}; !- Port 1

OS:PortList,
  {cccf9690-130f-4990-8671-2507f2aa2832}, !- Handle
  {e51a0863-d0f1-4613-a2ea-036146a8525f}, !- Name
  {831d49ce-5f77-47ed-8327-4f38b5648a87}; !- HVAC Component

OS:Sizing:Zone,
  {5805e234-8044-419e-b33d-8c52fefc81ea}, !- Handle
  {831d49ce-5f77-47ed-8327-4f38b5648a87}, !- Zone or ZoneList Name
  SupplyAirTemperature,                   !- Zone Cooling Design Supply Air Temperature Input Method
  14,                                     !- Zone Cooling Design Supply Air Temperature {C}
  11.11,                                  !- Zone Cooling Design Supply Air Temperature Difference {deltaC}
  SupplyAirTemperature,                   !- Zone Heating Design Supply Air Temperature Input Method
  40,                                     !- Zone Heating Design Supply Air Temperature {C}
  11.11,                                  !- Zone Heating Design Supply Air Temperature Difference {deltaC}
  0.0085,                                 !- Zone Cooling Design Supply Air Humidity Ratio {kg-H2O/kg-air}
  0.008,                                  !- Zone Heating Design Supply Air Humidity Ratio {kg-H2O/kg-air}
  ,                                       !- Zone Heating Sizing Factor
  ,                                       !- Zone Cooling Sizing Factor
  DesignDay,                              !- Cooling Design Air Flow Method
  ,                                       !- Cooling Design Air Flow Rate {m3/s}
  ,                                       !- Cooling Minimum Air Flow per Zone Floor Area {m3/s-m2}
  ,                                       !- Cooling Minimum Air Flow {m3/s}
  ,                                       !- Cooling Minimum Air Flow Fraction
  DesignDay,                              !- Heating Design Air Flow Method
  ,                                       !- Heating Design Air Flow Rate {m3/s}
  ,                                       !- Heating Maximum Air Flow per Zone Floor Area {m3/s-m2}
  ,                                       !- Heating Maximum Air Flow {m3/s}
  ,                                       !- Heating Maximum Air Flow Fraction
  ,                                       !- Design Zone Air Distribution Effectiveness in Cooling Mode
  ,                                       !- Design Zone Air Distribution Effectiveness in Heating Mode
  No,                                     !- Account for Dedicated Outdoor Air System
  NeutralSupplyAir,                       !- Dedicated Outdoor Air System Control Strategy
  autosize,                               !- Dedicated Outdoor Air Low Setpoint Temperature for Design {C}
  autosize;                               !- Dedicated Outdoor Air High Setpoint Temperature for Design {C}

OS:ZoneHVAC:EquipmentList,
  {616998db-ac8c-40d9-a5c8-b894873e2a18}, !- Handle
  Zone HVAC Equipment List 1,             !- Name
  {831d49ce-5f77-47ed-8327-4f38b5648a87}, !- Thermal Zone
  ,                                       !- Load Distribution Scheme
  {571541ac-5d15-4f92-940c-de34adf7d40e}, !- Zone Equipment 1
  1,                                      !- Zone Equipment Cooling Sequence 1
  1,                                      !- Zone Equipment Heating or No-Load Sequence 1
  {4bbd28cb-1064-4481-803a-203aa2f7a09b}, !- Zone Equipment 2
  2,                                      !- Zone Equipment Cooling Sequence 2
  2;                                      !- Zone Equipment Heating or No-Load Sequence 2

OS:ThermalZone,
  {a2647f04-218c-42fa-8f96-f0a2e4379160}, !- Handle
  garage zone,                            !- Name
  ,                                       !- Multiplier
  ,                                       !- Ceiling Height {m}
  ,                                       !- Volume {m3}
  ,                                       !- Floor Area {m2}
  ,                                       !- Zone Inside Convection Algorithm
  ,                                       !- Zone Outside Convection Algorithm
  ,                                       !- Zone Conditioning Equipment List Name
  {9a756b81-db76-405f-8732-eb34513567bc}, !- Zone Air Inlet Port List
  {f1909955-f650-4a7f-a68e-19a8d335a35e}, !- Zone Air Exhaust Port List
  {2a057ca1-140e-41a2-9b76-b21fc2dfad3d}, !- Zone Air Node Name
  {b1f4e5bd-64e0-40ca-b518-91c090e42618}, !- Zone Return Air Port List
  ,                                       !- Primary Daylighting Control Name
  ,                                       !- Fraction of Zone Controlled by Primary Daylighting Control
  ,                                       !- Secondary Daylighting Control Name
  ,                                       !- Fraction of Zone Controlled by Secondary Daylighting Control
  ,                                       !- Illuminance Map Name
  ,                                       !- Group Rendering Name
  ,                                       !- Thermostat Name
  No;                                     !- Use Ideal Air Loads

OS:Node,
  {8f7e5600-6443-4778-bba7-7ac9fbd2c488}, !- Handle
  Node 2,                                 !- Name
  {2a057ca1-140e-41a2-9b76-b21fc2dfad3d}, !- Inlet Port
  ;                                       !- Outlet Port

OS:Connection,
  {2a057ca1-140e-41a2-9b76-b21fc2dfad3d}, !- Handle
  {00834157-e71b-4073-916e-1281fc1647b6}, !- Name
  {a2647f04-218c-42fa-8f96-f0a2e4379160}, !- Source Object
  11,                                     !- Outlet Port
  {8f7e5600-6443-4778-bba7-7ac9fbd2c488}, !- Target Object
  2;                                      !- Inlet Port

OS:PortList,
  {9a756b81-db76-405f-8732-eb34513567bc}, !- Handle
  {7baa1d50-322c-4835-90bc-60aad3552ef5}, !- Name
  {a2647f04-218c-42fa-8f96-f0a2e4379160}; !- HVAC Component

OS:PortList,
  {f1909955-f650-4a7f-a68e-19a8d335a35e}, !- Handle
  {5f893fa9-1830-4e1f-bb5a-359d96e29860}, !- Name
  {a2647f04-218c-42fa-8f96-f0a2e4379160}; !- HVAC Component

OS:PortList,
  {b1f4e5bd-64e0-40ca-b518-91c090e42618}, !- Handle
  {4269602c-ba5e-47e6-b691-9bafcea07381}, !- Name
  {a2647f04-218c-42fa-8f96-f0a2e4379160}; !- HVAC Component

OS:Sizing:Zone,
  {8e3ddf50-3fd6-4663-b33f-41ac39137f28}, !- Handle
  {a2647f04-218c-42fa-8f96-f0a2e4379160}, !- Zone or ZoneList Name
  SupplyAirTemperature,                   !- Zone Cooling Design Supply Air Temperature Input Method
  14,                                     !- Zone Cooling Design Supply Air Temperature {C}
  11.11,                                  !- Zone Cooling Design Supply Air Temperature Difference {deltaC}
  SupplyAirTemperature,                   !- Zone Heating Design Supply Air Temperature Input Method
  40,                                     !- Zone Heating Design Supply Air Temperature {C}
  11.11,                                  !- Zone Heating Design Supply Air Temperature Difference {deltaC}
  0.0085,                                 !- Zone Cooling Design Supply Air Humidity Ratio {kg-H2O/kg-air}
  0.008,                                  !- Zone Heating Design Supply Air Humidity Ratio {kg-H2O/kg-air}
  ,                                       !- Zone Heating Sizing Factor
  ,                                       !- Zone Cooling Sizing Factor
  DesignDay,                              !- Cooling Design Air Flow Method
  ,                                       !- Cooling Design Air Flow Rate {m3/s}
  ,                                       !- Cooling Minimum Air Flow per Zone Floor Area {m3/s-m2}
  ,                                       !- Cooling Minimum Air Flow {m3/s}
  ,                                       !- Cooling Minimum Air Flow Fraction
  DesignDay,                              !- Heating Design Air Flow Method
  ,                                       !- Heating Design Air Flow Rate {m3/s}
  ,                                       !- Heating Maximum Air Flow per Zone Floor Area {m3/s-m2}
  ,                                       !- Heating Maximum Air Flow {m3/s}
  ,                                       !- Heating Maximum Air Flow Fraction
  ,                                       !- Design Zone Air Distribution Effectiveness in Cooling Mode
  ,                                       !- Design Zone Air Distribution Effectiveness in Heating Mode
  No,                                     !- Account for Dedicated Outdoor Air System
  NeutralSupplyAir,                       !- Dedicated Outdoor Air System Control Strategy
  autosize,                               !- Dedicated Outdoor Air Low Setpoint Temperature for Design {C}
  autosize;                               !- Dedicated Outdoor Air High Setpoint Temperature for Design {C}

OS:ZoneHVAC:EquipmentList,
  {30ec7f66-97f0-4552-9e45-31e81691647b}, !- Handle
  Zone HVAC Equipment List 2,             !- Name
  {a2647f04-218c-42fa-8f96-f0a2e4379160}; !- Thermal Zone

OS:Space,
  {ab8fafe5-796a-4d87-8201-533b61a39ec2}, !- Handle
  garage space,                           !- Name
  {b22a0aed-c460-437f-aae5-cb16f8533b60}, !- Space Type Name
  ,                                       !- Default Construction Set Name
  ,                                       !- Default Schedule Set Name
  -0,                                     !- Direction of Relative North {deg}
  0,                                      !- X Origin {m}
  0,                                      !- Y Origin {m}
  0,                                      !- Z Origin {m}
  ,                                       !- Building Story Name
  {a2647f04-218c-42fa-8f96-f0a2e4379160}; !- Thermal Zone Name

OS:Surface,
  {1ee6b278-3e1b-46b6-a4bd-3ed64bf91201}, !- Handle
  Surface 1,                              !- Name
  Floor,                                  !- Surface Type
  {bebaa23e-d9d0-4b2d-baba-5f82744d2e88}, !- Construction Name
  {ab8fafe5-796a-4d87-8201-533b61a39ec2}, !- Space Name
  Foundation,                             !- Outside Boundary Condition
  {324fa8f8-1719-4871-adae-e2c875a7a6cb}, !- Outside Boundary Condition Object
  NoSun,                                  !- Sun Exposure
  NoWind,                                 !- Wind Exposure
  ,                                       !- View Factor to Ground
  ,                                       !- Number of Vertices
  7.6199999993904, -3.048, 0,             !- X,Y,Z Vertex 1 {m}
  7.6199999993904, 3.048, 0,              !- X,Y,Z Vertex 2 {m}
  11.2775999993904, 3.048, 0,             !- X,Y,Z Vertex 3 {m}
  11.2775999993904, -3.048, 0;            !- X,Y,Z Vertex 4 {m}

OS:Surface,
  {18ef0957-4553-4758-aebd-4b0f209dfa66}, !- Handle
  Surface 2,                              !- Name
  Wall,                                   !- Surface Type
  {26a2f45a-99a3-46d2-8ea5-277c69d6121b}, !- Construction Name
  {ab8fafe5-796a-4d87-8201-533b61a39ec2}, !- Space Name
  Surface,                                !- Outside Boundary Condition
  {21a09cf9-82dc-4512-8a37-f568bab27db9}, !- Outside Boundary Condition Object
  NoSun,                                  !- Sun Exposure
  NoWind,                                 !- Wind Exposure
  ,                                       !- View Factor to Ground
  ,                                       !- Number of Vertices
  7.6199999993904, 3.048, 2.4384,         !- X,Y,Z Vertex 1 {m}
  7.6199999993904, 3.048, 0,              !- X,Y,Z Vertex 2 {m}
  7.6199999993904, 0, 0,                  !- X,Y,Z Vertex 3 {m}
  7.6199999993904, 0, 2.4384;             !- X,Y,Z Vertex 4 {m}

OS:Surface,
  {b8b8239d-e90a-4146-aa26-e5d85a4f5050}, !- Handle
  Surface 3,                              !- Name
  Wall,                                   !- Surface Type