!- NOTE: Auto-generated from /test/osw_files/SFD_HVACSizing_Equip_MSHPDucted_Autosize.osw

OS:Version,
  {a0802126-170a-4d20-927c-add5ccd0750a}, !- Handle
  2.7.0;                                  !- Version Identifier

OS:Building,
  {0d16f681-f4d2-4962-b129-af8af5be27e8}, !- Handle
  Building 1,                             !- Name
  ,                                       !- Building Sector Type
  22.5,                                   !- North Axis {deg}
  ,                                       !- Nominal Floor to Floor Height {m}
  ,                                       !- Space Type Name
  ,                                       !- Default Construction Set Name
  ,                                       !- Default Schedule Set Name
  4,                                      !- Standards Number of Stories
  3,                                      !- Standards Number of Above Ground Stories
  ,                                       !- Standards Template
  singlefamilydetached,                   !- Standards Building Type
  1;                                      !- Standards Number of Living Units

OS:Facility,
  {76b7bd07-23d1-45cf-bf8b-864f4557b8d5}; !- Handle

OS:Site,
  {6e9e9210-9618-4d9f-b50f-be4a26fcb1ec}, !- Handle
  Denver Intl Ap_CO_USA,                  !- Name
  39.83,                                  !- Latitude {deg}
  -104.65,                                !- Longitude {deg}
  -7,                                     !- Time Zone {hr}
  1650,                                   !- Elevation {m}
  Suburbs;                                !- Terrain

OS:SimulationControl,
  {db94e074-f4d9-419a-a9b9-b23fc0d25efb}, !- Handle
  ,                                       !- Do Zone Sizing Calculation
  ,                                       !- Do System Sizing Calculation
  ,                                       !- Do Plant Sizing Calculation
  No;                                     !- Run Simulation for Sizing Periods

OS:Sizing:Parameters,
  {eaa12dfb-b1dc-4325-b588-36963aecd293}, !- Handle
  1.25,                                   !- Heating Sizing Factor
  1.15;                                   !- Cooling Sizing Factor

OS:Timestep,
  {b4e3b253-5c93-437f-a22c-4b03b8bd3b67}, !- Handle
  6;                                      !- Number of Timesteps per Hour

OS:ShadowCalculation,
  {940d541e-e605-48ad-882e-9e45683e5033}, !- Handle
  20,                                     !- Calculation Frequency
  200;                                    !- Maximum Figures in Shadow Overlap Calculations

OS:HeatBalanceAlgorithm,
  {b3d918b5-08c8-481c-b769-974278c8fcff}, !- Handle
  MoisturePenetrationDepthConductionTransferFunction, !- Algorithm
  200;                                    !- Surface Temperature Upper Limit {C}

OS:RunPeriod,
  {8de5acbf-0df8-4a6f-aa4c-349903ca5bc4}, !- Handle
  Run Period 1,                           !- Name
  1,                                      !- Begin Month
  1,                                      !- Begin Day of Month
  12,                                     !- End Month
  31,                                     !- End Day of Month
  ,                                       !- Use Weather File Holidays and Special Days
  ,                                       !- Use Weather File Daylight Saving Period
  ,                                       !- Apply Weekend Holiday Rule
  ,                                       !- Use Weather File Rain Indicators
  ,                                       !- Use Weather File Snow Indicators
  ;                                       !- Number of Times Runperiod to be Repeated

OS:LifeCycleCost:Parameters,
  {7d33498d-6890-4f8b-90a0-6e208bd5dff9}, !- Handle
  ,                                       !- Analysis Type
  ,                                       !- Discounting Convention
  ,                                       !- Inflation Approach
  ,                                       !- Real Discount Rate
  ,                                       !- Nominal Discount Rate
  ,                                       !- Inflation
  ,                                       !- Base Date Month
  ,                                       !- Base Date Year
  ,                                       !- Service Date Month
  ,                                       !- Service Date Year
  ;                                       !- Length of Study Period in Years

OS:SurfaceConvectionAlgorithm:Outside,
  {e3f13e6d-dc87-4669-bfc7-c0cbfb4adf4c}, !- Handle
  DOE-2;                                  !- Algorithm

OS:SurfaceConvectionAlgorithm:Inside,
  {18d65e53-b64e-4cb4-95d5-ce49e7e19c2e}, !- Handle
  TARP;                                   !- Algorithm

OS:ZoneCapacitanceMultiplier:ResearchSpecial,
  {0978d86e-12f2-4349-a6a8-cb6fc625bcc1}, !- Handle
  ,                                       !- Temperature Capacity Multiplier
  1,                                      !- Humidity Capacity Multiplier
  ;                                       !- Carbon Dioxide Capacity Multiplier

OS:WeatherFile,
  {0334bd81-a87f-4c66-b346-13be08513b16}, !- Handle
  Denver Intl Ap,                         !- City
  CO,                                     !- State Province Region
  USA,                                    !- Country
  TMY3,                                   !- Data Source
  725650,                                 !- WMO Number
  39.83,                                  !- Latitude {deg}
  -104.65,                                !- Longitude {deg}
  -7,                                     !- Time Zone {hr}
  1650,                                   !- Elevation {m}
  file:../weather/USA_CO_Denver.Intl.AP.725650_TMY3.epw, !- Url
  E23378AA;                               !- Checksum

OS:AdditionalProperties,
  {bddf7a98-822d-450d-8189-4728618331c2}, !- Handle
  {0334bd81-a87f-4c66-b346-13be08513b16}, !- Object Name
  EPWHeaderCity,                          !- Feature Name 1
  String,                                 !- Feature Data Type 1
  Denver Intl Ap,                         !- Feature Value 1
  EPWHeaderState,                         !- Feature Name 2
  String,                                 !- Feature Data Type 2
  CO,                                     !- Feature Value 2
  EPWHeaderCountry,                       !- Feature Name 3
  String,                                 !- Feature Data Type 3
  USA,                                    !- Feature Value 3
  EPWHeaderDataSource,                    !- Feature Name 4
  String,                                 !- Feature Data Type 4
  TMY3,                                   !- Feature Value 4
  EPWHeaderStation,                       !- Feature Name 5
  String,                                 !- Feature Data Type 5
  725650,                                 !- Feature Value 5
  EPWHeaderLatitude,                      !- Feature Name 6
  Double,                                 !- Feature Data Type 6
  39.829999999999998,                     !- Feature Value 6
  EPWHeaderLongitude,                     !- Feature Name 7
  Double,                                 !- Feature Data Type 7
  -104.65000000000001,                    !- Feature Value 7
  EPWHeaderTimezone,                      !- Feature Name 8
  Double,                                 !- Feature Data Type 8
  -7,                                     !- Feature Value 8
  EPWHeaderAltitude,                      !- Feature Name 9
  Double,                                 !- Feature Data Type 9
  5413.3858267716532,                     !- Feature Value 9
  EPWHeaderLocalPressure,                 !- Feature Name 10
  Double,                                 !- Feature Data Type 10
  0.81937567683596546,                    !- Feature Value 10
  EPWHeaderRecordsPerHour,                !- Feature Name 11
  Double,                                 !- Feature Data Type 11
  0,                                      !- Feature Value 11
  EPWDataAnnualAvgDrybulb,                !- Feature Name 12
  Double,                                 !- Feature Data Type 12
  51.575616438356228,                     !- Feature Value 12
  EPWDataAnnualMinDrybulb,                !- Feature Name 13
  Double,                                 !- Feature Data Type 13
  -2.9200000000000017,                    !- Feature Value 13
  EPWDataAnnualMaxDrybulb,                !- Feature Name 14
  Double,                                 !- Feature Data Type 14
  104,                                    !- Feature Value 14
  EPWDataCDD50F,                          !- Feature Name 15
  Double,                                 !- Feature Data Type 15
  3072.2925000000005,                     !- Feature Value 15
  EPWDataCDD65F,                          !- Feature Name 16
  Double,                                 !- Feature Data Type 16
  883.62000000000035,                     !- Feature Value 16
  EPWDataHDD50F,                          !- Feature Name 17
  Double,                                 !- Feature Data Type 17
  2497.1925000000001,                     !- Feature Value 17
  EPWDataHDD65F,                          !- Feature Name 18
  Double,                                 !- Feature Data Type 18
  5783.5200000000013,                     !- Feature Value 18
  EPWDataAnnualAvgWindspeed,              !- Feature Name 19
  Double,                                 !- Feature Data Type 19
  3.9165296803649667,                     !- Feature Value 19
  EPWDataMonthlyAvgDrybulbs,              !- Feature Name 20
  String,                                 !- Feature Data Type 20
  33.4191935483871&#4431.90142857142857&#4443.02620967741937&#4442.48624999999999&#4459.877741935483854&#4473.57574999999997&#4472.07975806451608&#4472.70008064516134&#4466.49200000000006&#4450.079112903225806&#4437.218250000000005&#4434.582177419354835, !- Feature Value 20
  EPWDataGroundMonthlyTemps,              !- Feature Name 21
  String,                                 !- Feature Data Type 21
  44.08306285945173&#4440.89570904991865&#4440.64045432632048&#4442.153016571250646&#4448.225111118704206&#4454.268919273837525&#4459.508577937551024&#4462.82777283423508&#4463.10975667174995&#4460.41014950381947&#4455.304105212311526&#4449.445696474514364, !- Feature Value 21
  EPWDataWSF,                             !- Feature Name 22
  Double,                                 !- Feature Data Type 22
  0.58999999999999997,                    !- Feature Value 22
  EPWDataMonthlyAvgDailyHighDrybulbs,     !- Feature Name 23
  String,                                 !- Feature Data Type 23
  47.41032258064516&#4446.58642857142857&#4455.15032258064517&#4453.708&#4472.80193548387098&#4488.67600000000002&#4486.1858064516129&#4485.87225806451613&#4482.082&#4463.18064516129033&#4448.73400000000001&#4448.87935483870968, !- Feature Value 23
  EPWDataMonthlyAvgDailyLowDrybulbs,      !- Feature Name 24
  String,                                 !- Feature Data Type 24
  19.347741935483874&#4419.856428571428573&#4430.316129032258065&#4431.112&#4447.41612903225806&#4457.901999999999994&#4459.063870967741934&#4460.956774193548384&#4452.352000000000004&#4438.41612903225806&#4427.002000000000002&#4423.02903225806451, !- Feature Value 24
  EPWDesignHeatingDrybulb,                !- Feature Name 25
  Double,                                 !- Feature Data Type 25
  12.02,                                  !- Feature Value 25
  EPWDesignHeatingWindspeed,              !- Feature Name 26
  Double,                                 !- Feature Data Type 26
  2.8062500000000004,                     !- Feature Value 26
  EPWDesignCoolingDrybulb,                !- Feature Name 27
  Double,                                 !- Feature Data Type 27
  91.939999999999998,                     !- Feature Value 27
  EPWDesignCoolingWetbulb,                !- Feature Name 28
  Double,                                 !- Feature Data Type 28
  59.95131430195849,                      !- Feature Value 28
  EPWDesignCoolingHumidityRatio,          !- Feature Name 29
  Double,                                 !- Feature Data Type 29
  0.0059161086834698092,                  !- Feature Value 29
  EPWDesignCoolingWindspeed,              !- Feature Name 30
  Double,                                 !- Feature Data Type 30
  3.7999999999999989,                     !- Feature Value 30
  EPWDesignDailyTemperatureRange,         !- Feature Name 31
  Double,                                 !- Feature Data Type 31
  24.915483870967748,                     !- Feature Value 31
  EPWDesignDehumidDrybulb,                !- Feature Name 32
  Double,                                 !- Feature Data Type 32
  67.996785714285721,                     !- Feature Value 32
  EPWDesignDehumidHumidityRatio,          !- Feature Name 33
  Double,                                 !- Feature Data Type 33
  0.012133744170488724,                   !- Feature Value 33
  EPWDesignCoolingDirectNormal,           !- Feature Name 34
  Double,                                 !- Feature Data Type 34
  985,                                    !- Feature Value 34
  EPWDesignCoolingDiffuseHorizontal,      !- Feature Name 35
  Double,                                 !- Feature Data Type 35
  84;                                     !- Feature Value 35

OS:YearDescription,
  {ea69c435-6830-4bf7-9cd0-eebfc46f056e}, !- Handle
  ,                                       !- Calendar Year
  Monday;                                 !- Day of Week for Start Day

OS:ClimateZones,
  {cfbf6dcc-8391-422d-aad8-c4487893580e}, !- Handle
  ,                                       !- Active Institution
  ,                                       !- Active Year
  ,                                       !- Climate Zone Institution Name 1
  ,                                       !- Climate Zone Document Name 1
  ,                                       !- Climate Zone Document Year 1
  ,                                       !- Climate Zone Value 1
  Building America,                       !- Climate Zone Institution Name 2
  ,                                       !- Climate Zone Document Name 2
  0,                                      !- Climate Zone Document Year 2
  Cold;                                   !- Climate Zone Value 2

OS:Site:WaterMainsTemperature,
  {5a285f5d-6df0-4d4e-ab5b-635c942b88e5}, !- Handle
  Correlation,                            !- Calculation Method
  ,                                       !- Temperature Schedule Name
  10.8753424657535,                       !- Annual Average Outdoor Air Temperature {C}
  23.1524007936508;                       !- Maximum Difference In Monthly Average Outdoor Air Temperatures {deltaC}

OS:RunPeriodControl:DaylightSavingTime,
  {8a51c9c5-acd9-4440-91e3-a1b10a6ecddd}, !- Handle
  4/7,                                    !- Start Date
  10/26;                                  !- End Date

OS:Site:GroundTemperature:Deep,
  {df5c4763-b165-4247-b474-649af881f77d}, !- Handle
  10.8753424657535,                       !- January Deep Ground Temperature {C}
  10.8753424657535,                       !- February Deep Ground Temperature {C}
  10.8753424657535,                       !- March Deep Ground Temperature {C}
  10.8753424657535,                       !- April Deep Ground Temperature {C}
  10.8753424657535,                       !- May Deep Ground Temperature {C}
  10.8753424657535,                       !- June Deep Ground Temperature {C}
  10.8753424657535,                       !- July Deep Ground Temperature {C}
  10.8753424657535,                       !- August Deep Ground Temperature {C}
  10.8753424657535,                       !- September Deep Ground Temperature {C}
  10.8753424657535,                       !- October Deep Ground Temperature {C}
  10.8753424657535,                       !- November Deep Ground Temperature {C}
  10.8753424657535;                       !- December Deep Ground Temperature {C}

OS:ThermalZone,
  {826610e3-d114-4716-b16e-0087d4b660fe}, !- Handle
  living zone,                            !- Name
  ,                                       !- Multiplier
  ,                                       !- Ceiling Height {m}
  ,                                       !- Volume {m3}
  ,                                       !- Floor Area {m2}
  ,                                       !- Zone Inside Convection Algorithm
  ,                                       !- Zone Outside Convection Algorithm
  ,                                       !- Zone Conditioning Equipment List Name
  {51b9a35a-b33e-48a6-807d-f5a113245859}, !- Zone Air Inlet Port List
  {b7d066f2-ea6b-445e-a412-a4adfc5970f6}, !- Zone Air Exhaust Port List
  {a5b871b9-16d1-4452-b408-00ab04d84433}, !- Zone Air Node Name
  {6c49a5e9-4995-4e40-a704-0fbd222eec00}, !- Zone Return Air Port List
  ,                                       !- Primary Daylighting Control Name
  ,                                       !- Fraction of Zone Controlled by Primary Daylighting Control
  ,                                       !- Secondary Daylighting Control Name
  ,                                       !- Fraction of Zone Controlled by Secondary Daylighting Control
  ,                                       !- Illuminance Map Name
  ,                                       !- Group Rendering Name
  {7dc56ab2-c4ac-4f6c-a427-247d668f728d}, !- Thermostat Name
  No;                                     !- Use Ideal Air Loads

OS:Node,
  {6e4eb35a-2d99-412a-91ee-3a1e8e48563c}, !- Handle
  Node 1,                                 !- Name
  {a5b871b9-16d1-4452-b408-00ab04d84433}, !- Inlet Port
  ;                                       !- Outlet Port

OS:Connection,
  {a5b871b9-16d1-4452-b408-00ab04d84433}, !- Handle
  {60795219-4dd9-43b4-9037-1275cece5c15}, !- Name
  {826610e3-d114-4716-b16e-0087d4b660fe}, !- Source Object
  11,                                     !- Outlet Port
  {6e4eb35a-2d99-412a-91ee-3a1e8e48563c}, !- Target Object
  2;                                      !- Inlet Port

OS:PortList,
  {51b9a35a-b33e-48a6-807d-f5a113245859}, !- Handle
  {eb8d97aa-fea6-490d-aeb0-baa3d6ede1d3}, !- Name
  {826610e3-d114-4716-b16e-0087d4b660fe}, !- HVAC Component
  {deff3cd8-27be-4900-8998-961f7e872cbb}; !- Port 1

OS:PortList,
  {b7d066f2-ea6b-445e-a412-a4adfc5970f6}, !- Handle
  {aaed0e87-a654-4f5f-b0fa-79e2ba515960}, !- Name
  {826610e3-d114-4716-b16e-0087d4b660fe}, !- HVAC Component
  {f3ec541b-1adc-46d8-aab7-f6aa410c2b3b}; !- Port 1

OS:PortList,
  {6c49a5e9-4995-4e40-a704-0fbd222eec00}, !- Handle
  {e3ed620e-9502-4f73-ba3f-bc3928fb46d3}, !- Name
  {826610e3-d114-4716-b16e-0087d4b660fe}; !- HVAC Component

OS:Sizing:Zone,
  {a783e4b5-1d4b-40a3-89f2-18b2e800163c}, !- Handle
  {826610e3-d114-4716-b16e-0087d4b660fe}, !- Zone or ZoneList Name
  SupplyAirTemperature,                   !- Zone Cooling Design Supply Air Temperature Input Method
  14,                                     !- Zone Cooling Design Supply Air Temperature {C}
  11.11,                                  !- Zone Cooling Design Supply Air Temperature Difference {deltaC}
  SupplyAirTemperature,                   !- Zone Heating Design Supply Air Temperature Input Method
  40,                                     !- Zone Heating Design Supply Air Temperature {C}
  11.11,                                  !- Zone Heating Design Supply Air Temperature Difference {deltaC}
  0.0085,                                 !- Zone Cooling Design Supply Air Humidity Ratio {kg-H2O/kg-air}
  0.008,                                  !- Zone Heating Design Supply Air Humidity Ratio {kg-H2O/kg-air}
  ,                                       !- Zone Heating Sizing Factor
  ,                                       !- Zone Cooling Sizing Factor
  DesignDay,                              !- Cooling Design Air Flow Method
  ,                                       !- Cooling Design Air Flow Rate {m3/s}
  ,                                       !- Cooling Minimum Air Flow per Zone Floor Area {m3/s-m2}
  ,                                       !- Cooling Minimum Air Flow {m3/s}
  ,                                       !- Cooling Minimum Air Flow Fraction
  DesignDay,                              !- Heating Design Air Flow Method
  ,                                       !- Heating Design Air Flow Rate {m3/s}
  ,                                       !- Heating Maximum Air Flow per Zone Floor Area {m3/s-m2}
  ,                                       !- Heating Maximum Air Flow {m3/s}
  ,                                       !- Heating Maximum Air Flow Fraction
  ,                                       !- Design Zone Air Distribution Effectiveness in Cooling Mode
  ,                                       !- Design Zone Air Distribution Effectiveness in Heating Mode
  No,                                     !- Account for Dedicated Outdoor Air System
  NeutralSupplyAir,                       !- Dedicated Outdoor Air System Control Strategy
  autosize,                               !- Dedicated Outdoor Air Low Setpoint Temperature for Design {C}
  autosize;                               !- Dedicated Outdoor Air High Setpoint Temperature for Design {C}

OS:ZoneHVAC:EquipmentList,
  {467abe86-e170-455d-abb5-15f118df1f40}, !- Handle
  Zone HVAC Equipment List 1,             !- Name
  {826610e3-d114-4716-b16e-0087d4b660fe}, !- Thermal Zone
  ,                                       !- Load Distribution Scheme
  {8dd59913-2eba-480e-9bdc-ee995c6e3016}, !- Zone Equipment 1
  1,                                      !- Zone Equipment Cooling Sequence 1
  1;                                      !- Zone Equipment Heating or No-Load Sequence 1

OS:ThermalZone,
  {3ca25c92-9f8f-4a2b-8ed2-4d1c3592d73a}, !- Handle
  garage zone,                            !- Name
  ,                                       !- Multiplier
  ,                                       !- Ceiling Height {m}
  ,                                       !- Volume {m3}
  ,                                       !- Floor Area {m2}
  ,                                       !- Zone Inside Convection Algorithm
  ,                                       !- Zone Outside Convection Algorithm
  ,                                       !- Zone Conditioning Equipment List Name
  {f91f54f7-4962-4e7d-99e2-6911bb6068c9}, !- Zone Air Inlet Port List
  {1e881cbe-5af9-4743-b01e-9eed41fcbcb8}, !- Zone Air Exhaust Port List
  {c9ef06f2-56bf-423b-90ae-1e4eba8bf179}, !- Zone Air Node Name
  {d514c1bc-700c-4fa6-b0bb-3e8ace201aa6}, !- Zone Return Air Port List
  ,                                       !- Primary Daylighting Control Name
  ,                                       !- Fraction of Zone Controlled by Primary Daylighting Control
  ,                                       !- Secondary Daylighting Control Name
  ,                                       !- Fraction of Zone Controlled by Secondary Daylighting Control
  ,                                       !- Illuminance Map Name
  ,                                       !- Group Rendering Name
  ,                                       !- Thermostat Name
  No;                                     !- Use Ideal Air Loads

OS:Node,
  {cfe28d42-b4ad-40f4-a415-54411381ea0d}, !- Handle
  Node 2,                                 !- Name
  {c9ef06f2-56bf-423b-90ae-1e4eba8bf179}, !- Inlet Port
  ;                                       !- Outlet Port

OS:Connection,
  {c9ef06f2-56bf-423b-90ae-1e4eba8bf179}, !- Handle
  {b64bd1d9-ee2d-41f7-8d8b-2dc7e026813f}, !- Name
  {3ca25c92-9f8f-4a2b-8ed2-4d1c3592d73a}, !- Source Object
  11,                                     !- Outlet Port
  {cfe28d42-b4ad-40f4-a415-54411381ea0d}, !- Target Object
  2;                                      !- Inlet Port

OS:PortList,
  {f91f54f7-4962-4e7d-99e2-6911bb6068c9}, !- Handle
  {b7710d83-5829-42b9-aaaf-ee0b9c2d0582}, !- Name
  {3ca25c92-9f8f-4a2b-8ed2-4d1c3592d73a}; !- HVAC Component

OS:PortList,
  {1e881cbe-5af9-4743-b01e-9eed41fcbcb8}, !- Handle
  {2fefb49d-f9ca-415e-9130-12d4ffe19d75}, !- Name
  {3ca25c92-9f8f-4a2b-8ed2-4d1c3592d73a}; !- HVAC Component

OS:PortList,
  {d514c1bc-700c-4fa6-b0bb-3e8ace201aa6}, !- Handle
  {b03057a2-dc63-4c48-b475-29e0fa2d6d80}, !- Name
  {3ca25c92-9f8f-4a2b-8ed2-4d1c3592d73a}; !- HVAC Component

OS:Sizing:Zone,
  {cafe6e85-10f0-49b5-9b58-1d55372a2317}, !- Handle
  {3ca25c92-9f8f-4a2b-8ed2-4d1c3592d73a}, !- Zone or ZoneList Name
  SupplyAirTemperature,                   !- Zone Cooling Design Supply Air Temperature Input Method
  14,                                     !- Zone Cooling Design Supply Air Temperature {C}
  11.11,                                  !- Zone Cooling Design Supply Air Temperature Difference {deltaC}
  SupplyAirTemperature,                   !- Zone Heating Design Supply Air Temperature Input Method
  40,                                     !- Zone Heating Design Supply Air Temperature {C}
  11.11,                                  !- Zone Heating Design Supply Air Temperature Difference {deltaC}
  0.0085,                                 !- Zone Cooling Design Supply Air Humidity Ratio {kg-H2O/kg-air}
  0.008,                                  !- Zone Heating Design Supply Air Humidity Ratio {kg-H2O/kg-air}
  ,                                       !- Zone Heating Sizing Factor
  ,                                       !- Zone Cooling Sizing Factor
  DesignDay,                              !- Cooling Design Air Flow Method
  ,                                       !- Cooling Design Air Flow Rate {m3/s}
  ,                                       !- Cooling Minimum Air Flow per Zone Floor Area {m3/s-m2}
  ,                                       !- Cooling Minimum Air Flow {m3/s}
  ,                                       !- Cooling Minimum Air Flow Fraction
  DesignDay,                              !- Heating Design Air Flow Method
  ,                                       !- Heating Design Air Flow Rate {m3/s}
  ,                                       !- Heating Maximum Air Flow per Zone Floor Area {m3/s-m2}
  ,                                       !- Heating Maximum Air Flow {m3/s}
  ,                                       !- Heating Maximum Air Flow Fraction
  ,                                       !- Design Zone Air Distribution Effectiveness in Cooling Mode
  ,                                       !- Design Zone Air Distribution Effectiveness in Heating Mode
  No,                                     !- Account for Dedicated Outdoor Air System
  NeutralSupplyAir,                       !- Dedicated Outdoor Air System Control Strategy
  autosize,                               !- Dedicated Outdoor Air Low Setpoint Temperature for Design {C}
  autosize;                               !- Dedicated Outdoor Air High Setpoint Temperature for Design {C}

OS:ZoneHVAC:EquipmentList,
  {74c34d12-687e-4bbd-ab30-a421737f3d5e}, !- Handle
  Zone HVAC Equipment List 2,             !- Name
  {3ca25c92-9f8f-4a2b-8ed2-4d1c3592d73a}; !- Thermal Zone

OS:Space,
  {895ebbc6-1e9e-4344-b4f0-de2d1b99af1f}, !- Handle
  garage space,                           !- Name
  {bca6565a-c191-4817-986d-d7cba5056533}, !- Space Type Name
  ,                                       !- Default Construction Set Name
  ,                                       !- Default Schedule Set Name
  -0,                                     !- Direction of Relative North {deg}
  0,                                      !- X Origin {m}
  0,                                      !- Y Origin {m}
  0,                                      !- Z Origin {m}
  ,                                       !- Building Story Name
  {3ca25c92-9f8f-4a2b-8ed2-4d1c3592d73a}; !- Thermal Zone Name

OS:Surface,
  {700b753c-0620-48d5-a2ae-2f1f1baa8031}, !- Handle
  Surface 1,                              !- Name
  Floor,                                  !- Surface Type
  {d155bec6-5857-4ef0-b7e7-4d9c732fd460}, !- Construction Name
  {895ebbc6-1e9e-4344-b4f0-de2d1b99af1f}, !- Space Name
  Foundation,                             !- Outside Boundary Condition
  {5ab34a0d-1817-4643-9fbb-d418ebe2cf82}, !- Outside Boundary Condition Object
  NoSun,                                  !- Sun Exposure
  NoWind,                                 !- Wind Exposure
  ,                                       !- View Factor to Ground
  ,                                       !- Number of Vertices
  7.6199999993904, -3.048, 0,             !- X,Y,Z Vertex 1 {m}
  7.6199999993904, 3.048, 0,              !- X,Y,Z Vertex 2 {m}
  11.2775999993904, 3.048, 0,             !- X,Y,Z Vertex 3 {m}
  11.2775999993904, -3.048, 0;            !- X,Y,Z Vertex 4 {m}

OS:Surface,
  {a7f10779-eeae-4b97-bf30-2acf9b253467}, !- Handle
  Surface 2,                              !- Name
  Wall,                                   !- Surface Type
  {0eddf253-1d39-405a-a052-adf6b6e3dca2}, !- Construction Name
  {895ebbc6-1e9e-4344-b4f0-de2d1b99af1f}, !- Space Name
  Surface,                                !- Outside Boundary Condition
  {6ebd6831-180e-415e-a33c-5ce289660261}, !- Outside Boundary Condition Object
  NoSun,                                  !- Sun Exposure
  NoWind,                                 !- Wind Exposure
  ,                                       !- View Factor to Ground
  ,                                       !- Number of Vertices
  7.6199999993904, 3.048, 2.4384,         !- X,Y,Z Vertex 1 {m}
  7.6199999993904, 3.048, 0,              !- X,Y,Z Vertex 2 {m}
  7.6199999993904, 0, 0,                  !- X,Y,Z Vertex 3 {m}
  7.6199999993904, 0, 2.4384;             !- X,Y,Z Vertex 4 {m}

OS:Surface,
  {cc95cd92-5e7a-44c2-ac25-b769dd34b08b}, !- Handle
  Surface 3,                              !- Name
  Wall,                                   !- Surface Type
  {0eddf253-1d39-405a-a052-adf6b6e3dca2}, !- Construction Name
  {895ebbc6-1e9e-4344-b4f0-de2d1b99af1f}, !- Space Name
  Surface,                                !- Outside Boundary Condition
  {eae10eaa-4514-460d-9be5-36c0f29b0da7}, !- Outside Boundary Condition Object