!- NOTE: Auto-generated from /test/osw_files/SFD_Successful_EnergyPlus_Run_TMY_PV.osw

OS:Version,
  {e7d3d9fa-15fa-4a90-8d31-7e887b0a5725}, !- Handle
  2.7.0;                                  !- Version Identifier

OS:Building,
  {a8d5a64e-a9b0-43ef-b939-3ca674dfdd37}, !- Handle
  Building 1,                             !- Name
  ,                                       !- Building Sector Type
  22.5,                                   !- North Axis {deg}
  ,                                       !- Nominal Floor to Floor Height {m}
  ,                                       !- Space Type Name
  ,                                       !- Default Construction Set Name
  ,                                       !- Default Schedule Set Name
  2,                                      !- Standards Number of Stories
  2,                                      !- Standards Number of Above Ground Stories
  ,                                       !- Standards Template
  singlefamilydetached,                   !- Standards Building Type
  1;                                      !- Standards Number of Living Units

OS:Facility,
  {dad72d28-3a89-43ca-b995-8bb6af9e6277}; !- Handle

OS:Site,
  {ac945f11-ebd4-4939-8a29-39503cb90a81}, !- Handle
  Denver Intl Ap_CO_USA,                  !- Name
  39.83,                                  !- Latitude {deg}
  -104.65,                                !- Longitude {deg}
  -7,                                     !- Time Zone {hr}
  1650,                                   !- Elevation {m}
  Suburbs;                                !- Terrain

OS:SimulationControl,
  {50662ac0-bacb-41f2-93c0-f2a161306836}, !- Handle
  ,                                       !- Do Zone Sizing Calculation
  ,                                       !- Do System Sizing Calculation
  ,                                       !- Do Plant Sizing Calculation
  No;                                     !- Run Simulation for Sizing Periods

OS:Sizing:Parameters,
  {1ba471c3-b99e-4b07-a391-77f188de7f14}, !- Handle
  1.25,                                   !- Heating Sizing Factor
  1.15;                                   !- Cooling Sizing Factor

OS:Timestep,
  {07c3b2e7-9537-4e52-9587-273f09cd4b8e}, !- Handle
  6;                                      !- Number of Timesteps per Hour

OS:ShadowCalculation,
  {96d8dc6d-ca5b-420c-bf8d-736fb1d32486}, !- Handle
  20,                                     !- Calculation Frequency
  200;                                    !- Maximum Figures in Shadow Overlap Calculations

OS:HeatBalanceAlgorithm,
  {54109ef9-8c52-425a-95b3-562c9b7b9def}, !- Handle
  MoisturePenetrationDepthConductionTransferFunction, !- Algorithm
  200;                                    !- Surface Temperature Upper Limit {C}

OS:RunPeriod,
  {b1bacac7-dd54-4074-b36e-05e358ac1cba}, !- Handle
  Run Period 1,                           !- Name
  1,                                      !- Begin Month
  1,                                      !- Begin Day of Month
  12,                                     !- End Month
  31,                                     !- End Day of Month
  ,                                       !- Use Weather File Holidays and Special Days
  ,                                       !- Use Weather File Daylight Saving Period
  ,                                       !- Apply Weekend Holiday Rule
  ,                                       !- Use Weather File Rain Indicators
  ,                                       !- Use Weather File Snow Indicators
  ;                                       !- Number of Times Runperiod to be Repeated

OS:LifeCycleCost:Parameters,
  {239c25c9-e56e-464a-873a-0725aa5cda2f}, !- Handle
  ,                                       !- Analysis Type
  ,                                       !- Discounting Convention
  ,                                       !- Inflation Approach
  ,                                       !- Real Discount Rate
  ,                                       !- Nominal Discount Rate
  ,                                       !- Inflation
  ,                                       !- Base Date Month
  ,                                       !- Base Date Year
  ,                                       !- Service Date Month
  ,                                       !- Service Date Year
  ;                                       !- Length of Study Period in Years

OS:SurfaceConvectionAlgorithm:Outside,
  {b907652e-2548-4227-974b-932d2e9be142}, !- Handle
  DOE-2;                                  !- Algorithm

OS:SurfaceConvectionAlgorithm:Inside,
  {454f2d4b-79fb-4ba8-a775-d9ad4b6c379c}, !- Handle
  TARP;                                   !- Algorithm

OS:ZoneCapacitanceMultiplier:ResearchSpecial,
  {d1573d3a-9854-4613-a064-396734da74ab}, !- Handle
  ,                                       !- Temperature Capacity Multiplier
  1,                                      !- Humidity Capacity Multiplier
  ;                                       !- Carbon Dioxide Capacity Multiplier

OS:WeatherFile,
  {ef96102c-eb0e-4930-b599-4095390915ef}, !- Handle
  Denver Intl Ap,                         !- City
  CO,                                     !- State Province Region
  USA,                                    !- Country
  TMY3,                                   !- Data Source
  725650,                                 !- WMO Number
  39.83,                                  !- Latitude {deg}
  -104.65,                                !- Longitude {deg}
  -7,                                     !- Time Zone {hr}
  1650,                                   !- Elevation {m}
  file:../weather/USA_CO_Denver.Intl.AP.725650_TMY3.epw, !- Url
  E23378AA;                               !- Checksum

OS:AdditionalProperties,
  {487cbc4e-9289-4d76-94c4-14b59ab4d05e}, !- Handle
  {ef96102c-eb0e-4930-b599-4095390915ef}, !- Object Name
  EPWHeaderCity,                          !- Feature Name 1
  String,                                 !- Feature Data Type 1
  Denver Intl Ap,                         !- Feature Value 1
  EPWHeaderState,                         !- Feature Name 2
  String,                                 !- Feature Data Type 2
  CO,                                     !- Feature Value 2
  EPWHeaderCountry,                       !- Feature Name 3
  String,                                 !- Feature Data Type 3
  USA,                                    !- Feature Value 3
  EPWHeaderDataSource,                    !- Feature Name 4
  String,                                 !- Feature Data Type 4
  TMY3,                                   !- Feature Value 4
  EPWHeaderStation,                       !- Feature Name 5
  String,                                 !- Feature Data Type 5
  725650,                                 !- Feature Value 5
  EPWHeaderLatitude,                      !- Feature Name 6
  Double,                                 !- Feature Data Type 6
  39.829999999999998,                     !- Feature Value 6
  EPWHeaderLongitude,                     !- Feature Name 7
  Double,                                 !- Feature Data Type 7
  -104.65000000000001,                    !- Feature Value 7
  EPWHeaderTimezone,                      !- Feature Name 8
  Double,                                 !- Feature Data Type 8
  -7,                                     !- Feature Value 8
  EPWHeaderAltitude,                      !- Feature Name 9
  Double,                                 !- Feature Data Type 9
  5413.3858267716532,                     !- Feature Value 9
  EPWHeaderLocalPressure,                 !- Feature Name 10
  Double,                                 !- Feature Data Type 10
  0.81937567683596546,                    !- Feature Value 10
  EPWHeaderRecordsPerHour,                !- Feature Name 11
  Double,                                 !- Feature Data Type 11
  0,                                      !- Feature Value 11
  EPWDataAnnualAvgDrybulb,                !- Feature Name 12
  Double,                                 !- Feature Data Type 12
  51.575616438356228,                     !- Feature Value 12
  EPWDataAnnualMinDrybulb,                !- Feature Name 13
  Double,                                 !- Feature Data Type 13
  -2.9200000000000017,                    !- Feature Value 13
  EPWDataAnnualMaxDrybulb,                !- Feature Name 14
  Double,                                 !- Feature Data Type 14
  104,                                    !- Feature Value 14
  EPWDataCDD50F,                          !- Feature Name 15
  Double,                                 !- Feature Data Type 15
  3072.2925000000005,                     !- Feature Value 15
  EPWDataCDD65F,                          !- Feature Name 16
  Double,                                 !- Feature Data Type 16
  883.62000000000035,                     !- Feature Value 16
  EPWDataHDD50F,                          !- Feature Name 17
  Double,                                 !- Feature Data Type 17
  2497.1925000000001,                     !- Feature Value 17
  EPWDataHDD65F,                          !- Feature Name 18
  Double,                                 !- Feature Data Type 18
  5783.5200000000013,                     !- Feature Value 18
  EPWDataAnnualAvgWindspeed,              !- Feature Name 19
  Double,                                 !- Feature Data Type 19
  3.9165296803649667,                     !- Feature Value 19
  EPWDataMonthlyAvgDrybulbs,              !- Feature Name 20
  String,                                 !- Feature Data Type 20
  33.4191935483871&#4431.90142857142857&#4443.02620967741937&#4442.48624999999999&#4459.877741935483854&#4473.57574999999997&#4472.07975806451608&#4472.70008064516134&#4466.49200000000006&#4450.079112903225806&#4437.218250000000005&#4434.582177419354835, !- Feature Value 20
  EPWDataGroundMonthlyTemps,              !- Feature Name 21
  String,                                 !- Feature Data Type 21
  44.08306285945173&#4440.89570904991865&#4440.64045432632048&#4442.153016571250646&#4448.225111118704206&#4454.268919273837525&#4459.508577937551024&#4462.82777283423508&#4463.10975667174995&#4460.41014950381947&#4455.304105212311526&#4449.445696474514364, !- Feature Value 21
  EPWDataWSF,                             !- Feature Name 22
  Double,                                 !- Feature Data Type 22
  0.58999999999999997,                    !- Feature Value 22
  EPWDataMonthlyAvgDailyHighDrybulbs,     !- Feature Name 23
  String,                                 !- Feature Data Type 23
  47.41032258064516&#4446.58642857142857&#4455.15032258064517&#4453.708&#4472.80193548387098&#4488.67600000000002&#4486.1858064516129&#4485.87225806451613&#4482.082&#4463.18064516129033&#4448.73400000000001&#4448.87935483870968, !- Feature Value 23
  EPWDataMonthlyAvgDailyLowDrybulbs,      !- Feature Name 24
  String,                                 !- Feature Data Type 24
  19.347741935483874&#4419.856428571428573&#4430.316129032258065&#4431.112&#4447.41612903225806&#4457.901999999999994&#4459.063870967741934&#4460.956774193548384&#4452.352000000000004&#4438.41612903225806&#4427.002000000000002&#4423.02903225806451, !- Feature Value 24
  EPWDesignHeatingDrybulb,                !- Feature Name 25
  Double,                                 !- Feature Data Type 25
  12.02,                                  !- Feature Value 25
  EPWDesignHeatingWindspeed,              !- Feature Name 26
  Double,                                 !- Feature Data Type 26
  2.8062500000000004,                     !- Feature Value 26
  EPWDesignCoolingDrybulb,                !- Feature Name 27
  Double,                                 !- Feature Data Type 27
  91.939999999999998,                     !- Feature Value 27
  EPWDesignCoolingWetbulb,                !- Feature Name 28
  Double,                                 !- Feature Data Type 28
  59.95131430195849,                      !- Feature Value 28
  EPWDesignCoolingHumidityRatio,          !- Feature Name 29
  Double,                                 !- Feature Data Type 29
  0.0059161086834698092,                  !- Feature Value 29
  EPWDesignCoolingWindspeed,              !- Feature Name 30
  Double,                                 !- Feature Data Type 30
  3.7999999999999989,                     !- Feature Value 30
  EPWDesignDailyTemperatureRange,         !- Feature Name 31
  Double,                                 !- Feature Data Type 31
  24.915483870967748,                     !- Feature Value 31
  EPWDesignDehumidDrybulb,                !- Feature Name 32
  Double,                                 !- Feature Data Type 32
  67.996785714285721,                     !- Feature Value 32
  EPWDesignDehumidHumidityRatio,          !- Feature Name 33
  Double,                                 !- Feature Data Type 33
  0.012133744170488724,                   !- Feature Value 33
  EPWDesignCoolingDirectNormal,           !- Feature Name 34
  Double,                                 !- Feature Data Type 34
  985,                                    !- Feature Value 34
  EPWDesignCoolingDiffuseHorizontal,      !- Feature Name 35
  Double,                                 !- Feature Data Type 35
  84;                                     !- Feature Value 35

OS:YearDescription,
  {4e06d58d-6f19-4a01-a9fb-8b34f9a2a070}, !- Handle
  ,                                       !- Calendar Year
  Monday;                                 !- Day of Week for Start Day

OS:ClimateZones,
  {4f0e6aa4-92fa-449f-979f-919996396306}, !- Handle
  ,                                       !- Active Institution
  ,                                       !- Active Year
  ,                                       !- Climate Zone Institution Name 1
  ,                                       !- Climate Zone Document Name 1
  ,                                       !- Climate Zone Document Year 1
  ,                                       !- Climate Zone Value 1
  Building America,                       !- Climate Zone Institution Name 2
  ,                                       !- Climate Zone Document Name 2
  0,                                      !- Climate Zone Document Year 2
  Cold;                                   !- Climate Zone Value 2

OS:Site:WaterMainsTemperature,
  {cdbcce29-27b1-44b5-bc6d-a384af69ca79}, !- Handle
  Correlation,                            !- Calculation Method
  ,                                       !- Temperature Schedule Name
  10.8753424657535,                       !- Annual Average Outdoor Air Temperature {C}
  23.1524007936508;                       !- Maximum Difference In Monthly Average Outdoor Air Temperatures {deltaC}

OS:RunPeriodControl:DaylightSavingTime,
  {3d315a21-a498-42bc-9f35-e40d09c4ab03}, !- Handle
  4/7,                                    !- Start Date
  10/26;                                  !- End Date

OS:Site:GroundTemperature:Deep,
  {747585df-df23-4e50-a0cb-e36acb18af60}, !- Handle
  10.8753424657535,                       !- January Deep Ground Temperature {C}
  10.8753424657535,                       !- February Deep Ground Temperature {C}
  10.8753424657535,                       !- March Deep Ground Temperature {C}
  10.8753424657535,                       !- April Deep Ground Temperature {C}
  10.8753424657535,                       !- May Deep Ground Temperature {C}
  10.8753424657535,                       !- June Deep Ground Temperature {C}
  10.8753424657535,                       !- July Deep Ground Temperature {C}
  10.8753424657535,                       !- August Deep Ground Temperature {C}
  10.8753424657535,                       !- September Deep Ground Temperature {C}
  10.8753424657535,                       !- October Deep Ground Temperature {C}
  10.8753424657535,                       !- November Deep Ground Temperature {C}
  10.8753424657535;                       !- December Deep Ground Temperature {C}

OS:ThermalZone,
  {1a7f3e17-3a4f-496f-83f8-5a5014917572}, !- Handle
  living zone,                            !- Name
  ,                                       !- Multiplier
  ,                                       !- Ceiling Height {m}
  ,                                       !- Volume {m3}
  ,                                       !- Floor Area {m2}
  ,                                       !- Zone Inside Convection Algorithm
  ,                                       !- Zone Outside Convection Algorithm
  ,                                       !- Zone Conditioning Equipment List Name
  {99e5a374-0652-4225-adb7-d32a80703b56}, !- Zone Air Inlet Port List
  {f00c4ea3-0109-414d-ab19-12aa1a2db995}, !- Zone Air Exhaust Port List
  {bb4449b9-2012-4fd4-b132-8254b7dc1fc0}, !- Zone Air Node Name
  {a5ad9da0-3656-4137-8a9b-307548b0b310}, !- Zone Return Air Port List
  ,                                       !- Primary Daylighting Control Name
  ,                                       !- Fraction of Zone Controlled by Primary Daylighting Control
  ,                                       !- Secondary Daylighting Control Name
  ,                                       !- Fraction of Zone Controlled by Secondary Daylighting Control
  ,                                       !- Illuminance Map Name
  ,                                       !- Group Rendering Name
  {1a172a79-38c3-4d44-9c56-235480c347cd}, !- Thermostat Name
  No;                                     !- Use Ideal Air Loads

OS:Node,
  {7c9c588f-6ccc-4eea-a598-4bbead264180}, !- Handle
  Node 1,                                 !- Name
  {bb4449b9-2012-4fd4-b132-8254b7dc1fc0}, !- Inlet Port
  ;                                       !- Outlet Port

OS:Connection,
  {bb4449b9-2012-4fd4-b132-8254b7dc1fc0}, !- Handle
  {f9403dae-a467-49cd-9799-8af050070445}, !- Name
  {1a7f3e17-3a4f-496f-83f8-5a5014917572}, !- Source Object
  11,                                     !- Outlet Port
  {7c9c588f-6ccc-4eea-a598-4bbead264180}, !- Target Object
  2;                                      !- Inlet Port

OS:PortList,
  {99e5a374-0652-4225-adb7-d32a80703b56}, !- Handle
  {3ec50c6e-acd9-4131-92f6-fa63fdcbfe6c}, !- Name
  {1a7f3e17-3a4f-496f-83f8-5a5014917572}, !- HVAC Component
  {7ec13e72-12f5-49b8-96cb-82d535363a66}; !- Port 1

OS:PortList,
  {f00c4ea3-0109-414d-ab19-12aa1a2db995}, !- Handle
  {41dd9511-4338-4b7f-93e8-7f2bc4babbad}, !- Name
  {1a7f3e17-3a4f-496f-83f8-5a5014917572}; !- HVAC Component

OS:PortList,
  {a5ad9da0-3656-4137-8a9b-307548b0b310}, !- Handle
  {cd780040-10f4-450d-8d1c-27ba08c8b0da}, !- Name
  {1a7f3e17-3a4f-496f-83f8-5a5014917572}, !- HVAC Component
  {33a0600b-c58c-4c97-94dc-d4de589a551e}; !- Port 1

OS:Sizing:Zone,
  {9683eac6-aec8-4292-8b71-081a0f323d1e}, !- Handle
  {1a7f3e17-3a4f-496f-83f8-5a5014917572}, !- Zone or ZoneList Name
  SupplyAirTemperature,                   !- Zone Cooling Design Supply Air Temperature Input Method
  14,                                     !- Zone Cooling Design Supply Air Temperature {C}
  11.11,                                  !- Zone Cooling Design Supply Air Temperature Difference {deltaC}
  SupplyAirTemperature,                   !- Zone Heating Design Supply Air Temperature Input Method
  40,                                     !- Zone Heating Design Supply Air Temperature {C}
  11.11,                                  !- Zone Heating Design Supply Air Temperature Difference {deltaC}
  0.0085,                                 !- Zone Cooling Design Supply Air Humidity Ratio {kg-H2O/kg-air}
  0.008,                                  !- Zone Heating Design Supply Air Humidity Ratio {kg-H2O/kg-air}
  ,                                       !- Zone Heating Sizing Factor
  ,                                       !- Zone Cooling Sizing Factor
  DesignDay,                              !- Cooling Design Air Flow Method
  ,                                       !- Cooling Design Air Flow Rate {m3/s}
  ,                                       !- Cooling Minimum Air Flow per Zone Floor Area {m3/s-m2}
  ,                                       !- Cooling Minimum Air Flow {m3/s}
  ,                                       !- Cooling Minimum Air Flow Fraction
  DesignDay,                              !- Heating Design Air Flow Method
  ,                                       !- Heating Design Air Flow Rate {m3/s}
  ,                                       !- Heating Maximum Air Flow per Zone Floor Area {m3/s-m2}
  ,                                       !- Heating Maximum Air Flow {m3/s}
  ,                                       !- Heating Maximum Air Flow Fraction
  ,                                       !- Design Zone Air Distribution Effectiveness in Cooling Mode
  ,                                       !- Design Zone Air Distribution Effectiveness in Heating Mode
  No,                                     !- Account for Dedicated Outdoor Air System
  NeutralSupplyAir,                       !- Dedicated Outdoor Air System Control Strategy
  autosize,                               !- Dedicated Outdoor Air Low Setpoint Temperature for Design {C}
  autosize;                               !- Dedicated Outdoor Air High Setpoint Temperature for Design {C}

OS:ZoneHVAC:EquipmentList,
  {9e6ec5d7-e8a0-4f14-b280-8b2e38d6fca5}, !- Handle
  Zone HVAC Equipment List 1,             !- Name
  {1a7f3e17-3a4f-496f-83f8-5a5014917572}, !- Thermal Zone
  ,                                       !- Load Distribution Scheme
  {584c9184-38c2-4bac-9700-9acad4d93826}, !- Zone Equipment 1
  1,                                      !- Zone Equipment Cooling Sequence 1
  1;                                      !- Zone Equipment Heating or No-Load Sequence 1

OS:Space,
  {b1bbd1fa-f09b-4553-86c3-585523ae153c}, !- Handle
  living space,                           !- Name
  {798a79e0-77fe-4589-9cc9-472bb905feeb}, !- Space Type Name
  ,                                       !- Default Construction Set Name
  ,                                       !- Default Schedule Set Name
  -0,                                     !- Direction of Relative North {deg}
  0,                                      !- X Origin {m}
  0,                                      !- Y Origin {m}
  0,                                      !- Z Origin {m}
  ,                                       !- Building Story Name
  {1a7f3e17-3a4f-496f-83f8-5a5014917572}, !- Thermal Zone Name
  ,                                       !- Part of Total Floor Area
  ,                                       !- Design Specification Outdoor Air Object Name
  {05ac85b4-58d0-49ee-93b5-d652f65b7297}; !- Building Unit Name

OS:Surface,
  {3a844e95-dccb-48a6-9471-e53884aad6a5}, !- Handle
  Surface 1,                              !- Name
  Floor,                                  !- Surface Type
  {aa2b4bd4-0bf8-4b4a-850a-a7355af3b567}, !- Construction Name
  {b1bbd1fa-f09b-4553-86c3-585523ae153c}, !- Space Name
  Foundation,                             !- Outside Boundary Condition
  {670c1533-e37f-4bae-8dbf-5bd1cb8d3474}, !- Outside Boundary Condition Object
  NoSun,                                  !- Sun Exposure
  NoWind,                                 !- Wind Exposure
  ,                                       !- View Factor to Ground
  ,                                       !- Number of Vertices
  0, 0, 0,                                !- X,Y,Z Vertex 1 {m}
  0, 1.524, 0,                            !- X,Y,Z Vertex 2 {m}
  3.048, 1.524, 0,                        !- X,Y,Z Vertex 3 {m}
  3.048, 0, 0;                            !- X,Y,Z Vertex 4 {m}

OS:Surface,
  {7aebd6f8-e6c6-40c1-b6af-9ec8e4997fde}, !- Handle
  Surface 2,                              !- Name
  Wall,                                   !- Surface Type
  {7caf4c09-ea88-46e4-a0e1-988bb03b8c89}, !- Construction Name
  {b1bbd1fa-f09b-4553-86c3-585523ae153c}, !- Space Name
  Outdoors,                               !- Outside Boundary Condition
  ,                                       !- Outside Boundary Condition Object
  SunExposed,                             !- Sun Exposure
  WindExposed,                            !- Wind Exposure
  ,                                       !- View Factor to Ground
  ,                                       !- Number of Vertices
  0, 1.524, 2.4384,                       !- X,Y,Z Vertex 1 {m}
  0, 1.524, 0,                            !- X,Y,Z Vertex 2 {m}
  0, 0, 0,                                !- X,Y,Z Vertex 3 {m}
  0, 0, 2.4384;                           !- X,Y,Z Vertex 4 {m}

OS:Surface,
  {b325be4b-4fa6-4e41-89d8-c7ab65459226}, !- Handle
  Surface 3,                              !- Name
  Wall,                                   !- Surface Type
  {7caf4c09-ea88-46e4-a0e1-988bb03b8c89}, !- Construction Name
  {b1bbd1fa-f09b-4553-86c3-585523ae153c}, !- Space Name
  Outdoors,                               !- Outside Boundary Condition
  ,                                       !- Outside Boundary Condition Object
  SunExposed,                             !- Sun Exposure
  WindExposed,                            !- Wind Exposure
  ,                                       !- View Factor to Ground
  ,                                       !- Number of Vertices
  3.048, 1.524, 2.4384,                   !- X,Y,Z Vertex 1 {m}
  3.048, 1.524, 0,                        !- X,Y,Z Vertex 2 {m}
  0, 1.524, 0,                            !- X,Y,Z Vertex 3 {m}
  0, 1.524, 2.4384;                       !- X,Y,Z Vertex 4 {m}

OS:Surface,
  {7b31fefc-3b01-41ea-9985-4e3e285c3025}, !- Handle
  Surface 4,                              !- Name
  Wall,                                   !- Surface Type
  {7caf4c09-ea88-46e4-a0e1-988bb03b8c89}, !- Construction Name
  {b1bbd1fa-f09b-4553-86c3-585523ae153c}, !- Space Name
  Outdoors,                               !- Outside Boundary Condition
  ,                                       !- Outside Boundary Condition Object
  SunExposed,                             !- Sun Exposure
  WindExposed,                            !- Wind Exposure
  ,                                       !- View Factor to Ground
  ,                                       !- Number of Vertices
  3.048, 0, 2.4384,                       !- X,Y,Z Vertex 1 {m}
  3.048, 0, 0,                            !- X,Y,Z Vertex 2 {m}
  3.048, 1.524, 0,                        !- X,Y,Z Vertex 3 {m}
  3.048, 1.524, 2.4384;                   !- X,Y,Z Vertex 4 {m}

OS:Surface,
  {78319f86-2b62-4ca3-a4bb-41f38120c269}, !- Handle
  Surface 5,                              !- Name
  Wall,                                   !- Surface Type
  {7caf4c09-ea88-46e4-a0e1-988bb03b8c89}, !- Construction Name
  {b1bbd1fa-f09b-4553-86c3-585523ae153c}, !- Space Name
  Outdoors,                               !- Outside Boundary Condition
  ,                                       !- Outside Boundary Condition Object
  SunExposed,                             !- Sun Exposure
  WindExposed,                            !- Wind Exposure
  ,                                       !- View Factor to Ground
  ,                                       !- Number of Vertices
  3.048, 0, 0,                            !- X,Y,Z Vertex 1 {m}
  3.048, 0, 2.4384,                       !- X,Y,Z Vertex 2 {m}
  1.04865714285714, 0, 2.4384,            !- X,Y,Z Vertex 3 {m}
  1.04865714285714, 0, 0;                 !- X,Y,Z Vertex 4 {m}

OS:Surface,
  {00b028a7-70ad-4929-8239-061c8b16d1da}, !- Handle
  Surface 6,                              !- Name
  RoofCeiling,                            !- Surface Type
  {577ef8dd-eb24-4691-a64d-1a747dbf3a89}, !- Construction Name
  {b1bbd1fa-f09b-4553-86c3-585523ae153c}, !- Space Name
  Surface,                                !- Outside Boundary Condition
  {c92104bd-f596-4487-8840-25557e29744c}, !- Outside Boundary Condition Object
  NoSun,                                  !- Sun Exposure
  NoWind,                                 !- Wind Exposure
  ,                                       !- View Factor to Ground
  ,                                       !- Number of Vertices
  3.048, 0, 2.4384,                       !- X,Y,Z Vertex 1 {m}
  3.048, 1.524, 2.4384,                   !- X,Y,Z Vertex 2 {m}
  0, 1.524, 2.4384,                       !- X,Y,Z Vertex 3 {m}
  0, 0, 2.4384;                           !- X,Y,Z Vertex 4 {m}

OS:SpaceType,
  {798a79e0-77fe-4589-9cc9-472bb905feeb}, !- Handle
  Space Type 1,                           !- Name
  ,                                       !- Default Construction Set Name
  ,                                       !- Default Schedule Set Name
  ,                                       !- Group Rendering Name
  ,                                       !- Design Specification Outdoor Air Object Name
  ,                                       !- Standards Template
  ,                                       !- Standards Building Type
  living;                                 !- Standards Space Type

OS:Space,
  {144f1dba-4143-49c9-9da9-065b99190fdc}, !- Handle
  living space|story 2,                   !- Name
  {798a79e0-77fe-4589-9cc9-472bb905feeb}, !- Space Type Name
  ,                                       !- Default Construction Set Name
  ,                                       !- Default Schedule Set Name
  -0,                                     !- Direction of Relative North {deg}
  0,                                      !- X Origin {m}
  0,                                      !- Y Origin {m}
  2.4384,                                 !- Z Origin {m}
  ,                                       !- Building Story Name
  {1a7f3e17-3a4f-496f-83f8-5a5014917572}, !- Thermal Zone Name
  ,                                       !- Part of Total Floor Area
  ,                                       !- Design Specification Outdoor Air Object Name
  {05ac85b4-58d0-49ee-93b5-d652f65b7297}; !- Building Unit Name

OS:Surface,
  {c92104bd-f596-4487-8840-25557e29744c}, !- Handle
  Surface 7,                              !- Name
  Floor,                                  !- Surface Type