!- NOTE: Auto-generated from /test/osw_files/SFD_2000sqft_2story_SL_GRG_UA.osw

OS:Version,
  {cae0f17d-c841-4b90-815c-5d4a1ad8d7a8}, !- Handle
  2.7.0;                                  !- Version Identifier

OS:Building,
  {519e8835-0ddc-4216-b672-49a5238f86e4}, !- Handle
  Building 1,                             !- Name
  ,                                       !- Building Sector Type
  0,                                      !- North Axis {deg}
  ,                                       !- Nominal Floor to Floor Height {m}
  ,                                       !- Space Type Name
  ,                                       !- Default Construction Set Name
  ,                                       !- Default Schedule Set Name
  2,                                      !- Standards Number of Stories
  2,                                      !- Standards Number of Above Ground Stories
  ,                                       !- Standards Template
  singlefamilydetached,                   !- Standards Building Type
  1;                                      !- Standards Number of Living Units

OS:Facility,
  {f97b5e90-cadd-4464-9f2f-a9391b915237}; !- Handle

OS:Site,
  {1a73a5db-1b87-4d13-8b43-775fcd2ecd15}, !- Handle
  Site 1,                                 !- Name
  ,                                       !- Latitude {deg}
  ,                                       !- Longitude {deg}
  ,                                       !- Time Zone {hr}
  ,                                       !- Elevation {m}
  ;                                       !- Terrain

OS:SimulationControl,
  {aec91288-b578-4398-be8c-1f0ca589ac54}, !- Handle
  ,                                       !- Do Zone Sizing Calculation
  ,                                       !- Do System Sizing Calculation
  ,                                       !- Do Plant Sizing Calculation
  No;                                     !- Run Simulation for Sizing Periods

OS:Sizing:Parameters,
  {67996737-ec03-49c9-b489-713721b18b84}, !- Handle
  1.25,                                   !- Heating Sizing Factor
  1.15;                                   !- Cooling Sizing Factor

OS:Timestep,
  {9d69c001-948d-4cff-a665-fcc259bd5780}, !- Handle
  6;                                      !- Number of Timesteps per Hour

OS:ShadowCalculation,
  {2421741a-01a1-4486-aff6-824d06bd5b8e}, !- Handle
  20,                                     !- Calculation Frequency
  200;                                    !- Maximum Figures in Shadow Overlap Calculations

OS:HeatBalanceAlgorithm,
  {8f761422-f346-4b0b-bb1f-3cd5b50daa3b}, !- Handle
  ConductionTransferFunction,             !- Algorithm
  200;                                    !- Surface Temperature Upper Limit {C}

OS:RunPeriod,
  {8907e4be-5661-49f0-b5ec-7c20a87500a2}, !- Handle
  Run Period 1,                           !- Name
  1,                                      !- Begin Month
  1,                                      !- Begin Day of Month
  12,                                     !- End Month
  31,                                     !- End Day of Month
  ,                                       !- Use Weather File Holidays and Special Days
  ,                                       !- Use Weather File Daylight Saving Period
  ,                                       !- Apply Weekend Holiday Rule
  ,                                       !- Use Weather File Rain Indicators
  ,                                       !- Use Weather File Snow Indicators
  ;                                       !- Number of Times Runperiod to be Repeated

OS:LifeCycleCost:Parameters,
  {a2695715-21f0-4709-816a-1faa7470b6fd}, !- Handle
  ,                                       !- Analysis Type
  ,                                       !- Discounting Convention
  ,                                       !- Inflation Approach
  ,                                       !- Real Discount Rate
  ,                                       !- Nominal Discount Rate
  ,                                       !- Inflation
  ,                                       !- Base Date Month
  ,                                       !- Base Date Year
  ,                                       !- Service Date Month
  ,                                       !- Service Date Year
  ;                                       !- Length of Study Period in Years

OS:SurfaceConvectionAlgorithm:Outside,
  {49e10a17-25a9-4f3a-a2c3-713f8ce9fdd8}, !- Handle
  DOE-2;                                  !- Algorithm

OS:SurfaceConvectionAlgorithm:Inside,
  {26392850-1eb8-48cf-93f6-8a9ea4144fe2}, !- Handle
  TARP;                                   !- Algorithm

OS:ZoneCapacitanceMultiplier:ResearchSpecial,
  {0d224183-96ad-4258-9039-b52729ea7ba4}, !- Handle
  ,                                       !- Temperature Capacity Multiplier
  15,                                     !- Humidity Capacity Multiplier
  ;                                       !- Carbon Dioxide Capacity Multiplier

OS:ThermalZone,
  {df250726-9255-455c-a0e0-0ab539bb19a1}, !- Handle
  living zone,                            !- Name
  ,                                       !- Multiplier
  ,                                       !- Ceiling Height {m}
  ,                                       !- Volume {m3}
  ,                                       !- Floor Area {m2}
  ,                                       !- Zone Inside Convection Algorithm
  ,                                       !- Zone Outside Convection Algorithm
  ,                                       !- Zone Conditioning Equipment List Name
  {7b7baa23-cb57-4b23-8c73-7b701cc541e0}, !- Zone Air Inlet Port List
  {c687b7b1-f160-4dd0-9d5f-5b3bbcb86e0d}, !- Zone Air Exhaust Port List
  {2df2fb02-e69a-499d-b3ca-dcbd4d454c06}, !- Zone Air Node Name
  {22335333-1f84-48d1-9fff-ce36aa929dd8}, !- Zone Return Air Port List
  ,                                       !- Primary Daylighting Control Name
  ,                                       !- Fraction of Zone Controlled by Primary Daylighting Control
  ,                                       !- Secondary Daylighting Control Name
  ,                                       !- Fraction of Zone Controlled by Secondary Daylighting Control
  ,                                       !- Illuminance Map Name
  ,                                       !- Group Rendering Name
  ,                                       !- Thermostat Name
  No;                                     !- Use Ideal Air Loads

OS:Node,
  {f7f3932b-4e26-40ec-92b1-116d08568d75}, !- Handle
  Node 1,                                 !- Name
  {2df2fb02-e69a-499d-b3ca-dcbd4d454c06}, !- Inlet Port
  ;                                       !- Outlet Port

OS:Connection,
  {2df2fb02-e69a-499d-b3ca-dcbd4d454c06}, !- Handle
  {1e876fc6-3c76-45c5-bf75-a41dd6767ed3}, !- Name
  {df250726-9255-455c-a0e0-0ab539bb19a1}, !- Source Object
  11,                                     !- Outlet Port
  {f7f3932b-4e26-40ec-92b1-116d08568d75}, !- Target Object
  2;                                      !- Inlet Port

OS:PortList,
  {7b7baa23-cb57-4b23-8c73-7b701cc541e0}, !- Handle
  {7622a698-d5d4-483c-9617-b25cdf78f9d9}, !- Name
  {df250726-9255-455c-a0e0-0ab539bb19a1}; !- HVAC Component

OS:PortList,
  {c687b7b1-f160-4dd0-9d5f-5b3bbcb86e0d}, !- Handle
  {e288300f-b74a-4047-8328-f9246f8760ed}, !- Name
  {df250726-9255-455c-a0e0-0ab539bb19a1}; !- HVAC Component

OS:PortList,
  {22335333-1f84-48d1-9fff-ce36aa929dd8}, !- Handle
  {61b904d2-2485-4fee-bde7-99ae5480a20d}, !- Name
  {df250726-9255-455c-a0e0-0ab539bb19a1}; !- HVAC Component

OS:Sizing:Zone,
  {e731f473-283d-467a-9221-bb1cf9677c5e}, !- Handle
  {df250726-9255-455c-a0e0-0ab539bb19a1}, !- Zone or ZoneList Name
  SupplyAirTemperature,                   !- Zone Cooling Design Supply Air Temperature Input Method
  14,                                     !- Zone Cooling Design Supply Air Temperature {C}
  11.11,                                  !- Zone Cooling Design Supply Air Temperature Difference {deltaC}
  SupplyAirTemperature,                   !- Zone Heating Design Supply Air Temperature Input Method
  40,                                     !- Zone Heating Design Supply Air Temperature {C}
  11.11,                                  !- Zone Heating Design Supply Air Temperature Difference {deltaC}
  0.0085,                                 !- Zone Cooling Design Supply Air Humidity Ratio {kg-H2O/kg-air}
  0.008,                                  !- Zone Heating Design Supply Air Humidity Ratio {kg-H2O/kg-air}
  ,                                       !- Zone Heating Sizing Factor
  ,                                       !- Zone Cooling Sizing Factor
  DesignDay,                              !- Cooling Design Air Flow Method
  ,                                       !- Cooling Design Air Flow Rate {m3/s}
  ,                                       !- Cooling Minimum Air Flow per Zone Floor Area {m3/s-m2}
  ,                                       !- Cooling Minimum Air Flow {m3/s}
  ,                                       !- Cooling Minimum Air Flow Fraction
  DesignDay,                              !- Heating Design Air Flow Method
  ,                                       !- Heating Design Air Flow Rate {m3/s}
  ,                                       !- Heating Maximum Air Flow per Zone Floor Area {m3/s-m2}
  ,                                       !- Heating Maximum Air Flow {m3/s}
  ,                                       !- Heating Maximum Air Flow Fraction
  ,                                       !- Design Zone Air Distribution Effectiveness in Cooling Mode
  ,                                       !- Design Zone Air Distribution Effectiveness in Heating Mode
  No,                                     !- Account for Dedicated Outdoor Air System
  NeutralSupplyAir,                       !- Dedicated Outdoor Air System Control Strategy
  autosize,                               !- Dedicated Outdoor Air Low Setpoint Temperature for Design {C}
  autosize;                               !- Dedicated Outdoor Air High Setpoint Temperature for Design {C}

OS:ZoneHVAC:EquipmentList,
  {30e0ddf5-aed7-4b53-9cf7-54cb9a42b84c}, !- Handle
  Zone HVAC Equipment List 1,             !- Name
  {df250726-9255-455c-a0e0-0ab539bb19a1}; !- Thermal Zone

OS:ThermalZone,
  {e1fa2fc7-4e03-4eb5-86ea-c8af05261742}, !- Handle
  garage zone,                            !- Name
  ,                                       !- Multiplier
  ,                                       !- Ceiling Height {m}
  ,                                       !- Volume {m3}
  ,                                       !- Floor Area {m2}
  ,                                       !- Zone Inside Convection Algorithm
  ,                                       !- Zone Outside Convection Algorithm
  ,                                       !- Zone Conditioning Equipment List Name
  {818b51bc-2e31-4717-9c6f-124085ed1ecd}, !- Zone Air Inlet Port List
  {3b8074e3-c7ea-4e66-a874-07f5bfaca7a8}, !- Zone Air Exhaust Port List
  {199be616-ccb4-466f-a384-27a00ccdea9d}, !- Zone Air Node Name
  {a19f93b5-d1c0-4e71-bfe8-0b37f6d3aa91}, !- Zone Return Air Port List
  ,                                       !- Primary Daylighting Control Name
  ,                                       !- Fraction of Zone Controlled by Primary Daylighting Control
  ,                                       !- Secondary Daylighting Control Name
  ,                                       !- Fraction of Zone Controlled by Secondary Daylighting Control
  ,                                       !- Illuminance Map Name
  ,                                       !- Group Rendering Name
  ,                                       !- Thermostat Name
  No;                                     !- Use Ideal Air Loads

OS:Node,
  {912582d4-4feb-4b91-ac4d-92257cb230a2}, !- Handle
  Node 2,                                 !- Name
  {199be616-ccb4-466f-a384-27a00ccdea9d}, !- Inlet Port
  ;                                       !- Outlet Port

OS:Connection,
  {199be616-ccb4-466f-a384-27a00ccdea9d}, !- Handle
  {b1d12267-495e-4d71-a8ed-efcba1d94985}, !- Name
  {e1fa2fc7-4e03-4eb5-86ea-c8af05261742}, !- Source Object
  11,                                     !- Outlet Port
  {912582d4-4feb-4b91-ac4d-92257cb230a2}, !- Target Object
  2;                                      !- Inlet Port

OS:PortList,
  {818b51bc-2e31-4717-9c6f-124085ed1ecd}, !- Handle
  {38e37bd4-b9d8-40df-adfb-d9de0f504cd9}, !- Name
  {e1fa2fc7-4e03-4eb5-86ea-c8af05261742}; !- HVAC Component

OS:PortList,
  {3b8074e3-c7ea-4e66-a874-07f5bfaca7a8}, !- Handle
  {f7290b90-eb73-463e-9e31-046caf59c9f7}, !- Name
  {e1fa2fc7-4e03-4eb5-86ea-c8af05261742}; !- HVAC Component

OS:PortList,
  {a19f93b5-d1c0-4e71-bfe8-0b37f6d3aa91}, !- Handle
  {afd2bee2-eef6-49f8-b0d4-8ef03ffcaab6}, !- Name
  {e1fa2fc7-4e03-4eb5-86ea-c8af05261742}; !- HVAC Component

OS:Sizing:Zone,
  {f5f1c4fe-e8b0-434d-8cf8-bf619dbc5743}, !- Handle
  {e1fa2fc7-4e03-4eb5-86ea-c8af05261742}, !- Zone or ZoneList Name
  SupplyAirTemperature,                   !- Zone Cooling Design Supply Air Temperature Input Method
  14,                                     !- Zone Cooling Design Supply Air Temperature {C}
  11.11,                                  !- Zone Cooling Design Supply Air Temperature Difference {deltaC}
  SupplyAirTemperature,                   !- Zone Heating Design Supply Air Temperature Input Method
  40,                                     !- Zone Heating Design Supply Air Temperature {C}
  11.11,                                  !- Zone Heating Design Supply Air Temperature Difference {deltaC}
  0.0085,                                 !- Zone Cooling Design Supply Air Humidity Ratio {kg-H2O/kg-air}
  0.008,                                  !- Zone Heating Design Supply Air Humidity Ratio {kg-H2O/kg-air}
  ,                                       !- Zone Heating Sizing Factor
  ,                                       !- Zone Cooling Sizing Factor
  DesignDay,                              !- Cooling Design Air Flow Method
  ,                                       !- Cooling Design Air Flow Rate {m3/s}
  ,                                       !- Cooling Minimum Air Flow per Zone Floor Area {m3/s-m2}
  ,                                       !- Cooling Minimum Air Flow {m3/s}
  ,                                       !- Cooling Minimum Air Flow Fraction
  DesignDay,                              !- Heating Design Air Flow Method
  ,                                       !- Heating Design Air Flow Rate {m3/s}
  ,                                       !- Heating Maximum Air Flow per Zone Floor Area {m3/s-m2}
  ,                                       !- Heating Maximum Air Flow {m3/s}
  ,                                       !- Heating Maximum Air Flow Fraction
  ,                                       !- Design Zone Air Distribution Effectiveness in Cooling Mode
  ,                                       !- Design Zone Air Distribution Effectiveness in Heating Mode
  No,                                     !- Account for Dedicated Outdoor Air System
  NeutralSupplyAir,                       !- Dedicated Outdoor Air System Control Strategy
  autosize,                               !- Dedicated Outdoor Air Low Setpoint Temperature for Design {C}
  autosize;                               !- Dedicated Outdoor Air High Setpoint Temperature for Design {C}

OS:ZoneHVAC:EquipmentList,
  {448df3f4-72cf-4c5c-87f9-4b3783609dae}, !- Handle
  Zone HVAC Equipment List 2,             !- Name
  {e1fa2fc7-4e03-4eb5-86ea-c8af05261742}; !- Thermal Zone

OS:Space,
  {fd48bd54-2bcd-422d-a74e-cd01a9005339}, !- Handle
  garage space,                           !- Name
  {8f9edeb1-9853-4d1c-8e7a-94803aa4e318}, !- Space Type Name
  ,                                       !- Default Construction Set Name
  ,                                       !- Default Schedule Set Name
  -0,                                     !- Direction of Relative North {deg}
  0,                                      !- X Origin {m}
  0,                                      !- Y Origin {m}
  0,                                      !- Z Origin {m}
  ,                                       !- Building Story Name
  {e1fa2fc7-4e03-4eb5-86ea-c8af05261742}; !- Thermal Zone Name

OS:Surface,
  {33260a08-8d9c-4c80-b854-8ddc3e1ed6c9}, !- Handle
  Surface 1,                              !- Name
  Floor,                                  !- Surface Type
  ,                                       !- Construction Name
  {fd48bd54-2bcd-422d-a74e-cd01a9005339}, !- Space Name
  Foundation,                             !- Outside Boundary Condition
  ,                                       !- Outside Boundary Condition Object
  NoSun,                                  !- Sun Exposure
  NoWind,                                 !- Wind Exposure
  ,                                       !- View Factor to Ground
  ,                                       !- Number of Vertices
  7.53507039083872, -3.048, 0,            !- X,Y,Z Vertex 1 {m}
  7.53507039083872, 3.048, 0,             !- X,Y,Z Vertex 2 {m}
  13.6310703908387, 3.048, 0,             !- X,Y,Z Vertex 3 {m}
  13.6310703908387, -3.048, 0;            !- X,Y,Z Vertex 4 {m}

OS:Surface,
  {b650d143-5258-46b4-afcd-3f0ba8980fdf}, !- Handle
  Surface 2,                              !- Name
  Wall,                                   !- Surface Type
  ,                                       !- Construction Name
  {fd48bd54-2bcd-422d-a74e-cd01a9005339}, !- Space Name
  Surface,                                !- Outside Boundary Condition
  {4c7c026c-4b4f-4542-835c-8049b54ef99d}, !- Outside Boundary Condition Object
  NoSun,                                  !- Sun Exposure
  NoWind,                                 !- Wind Exposure
  ,                                       !- View Factor to Ground
  ,                                       !- Number of Vertices
  7.53507039083872, 3.048, 2.4384,        !- X,Y,Z Vertex 1 {m}
  7.53507039083872, 3.048, 0,             !- X,Y,Z Vertex 2 {m}
  7.53507039083872, 0, 0,                 !- X,Y,Z Vertex 3 {m}
  7.53507039083872, 0, 2.4384;            !- X,Y,Z Vertex 4 {m}

OS:Surface,
  {dfdae500-c69d-45e3-a874-fbfe3aac65aa}, !- Handle
  Surface 3,                              !- Name
  Wall,                                   !- Surface Type
  ,                                       !- Construction Name
  {fd48bd54-2bcd-422d-a74e-cd01a9005339}, !- Space Name
  Surface,                                !- Outside Boundary Condition
  {71e40146-9cef-4bdc-b788-e6453cb23ef6}, !- Outside Boundary Condition Object
  NoSun,                                  !- Sun Exposure
  NoWind,                                 !- Wind Exposure
  ,                                       !- View Factor to Ground
  ,                                       !- Number of Vertices
  13.6310703908387, 3.048, 2.4384,        !- X,Y,Z Vertex 1 {m}
  13.6310703908387, 3.048, 0,             !- X,Y,Z Vertex 2 {m}
  7.53507039083872, 3.048, 0,             !- X,Y,Z Vertex 3 {m}
  7.53507039083872, 3.048, 2.4384;        !- X,Y,Z Vertex 4 {m}

OS:Surface,
  {1aaac910-c086-4b47-829d-e37d68002e9f}, !- Handle
  Surface 4,                              !- Name
  Wall,                                   !- Surface Type
  ,                                       !- Construction Name
  {fd48bd54-2bcd-422d-a74e-cd01a9005339}, !- Space Name
  Outdoors,                               !- Outside Boundary Condition
  ,                                       !- Outside Boundary Condition Object
  SunExposed,                             !- Sun Exposure
  WindExposed,                            !- Wind Exposure
  ,                                       !- View Factor to Ground
  ,                                       !- Number of Vertices
  13.6310703908387, -3.048, 2.4384,       !- X,Y,Z Vertex 1 {m}
  13.6310703908387, -3.048, 0,            !- X,Y,Z Vertex 2 {m}
  13.6310703908387, 3.048, 0,             !- X,Y,Z Vertex 3 {m}
  13.6310703908387, 3.048, 2.4384;        !- X,Y,Z Vertex 4 {m}

OS:Surface,
  {59f994c7-f509-439e-b472-c7a1a005a12a}, !- Handle
  Surface 5,                              !- Name
  Wall,                                   !- Surface Type
  ,                                       !- Construction Name
  {fd48bd54-2bcd-422d-a74e-cd01a9005339}, !- Space Name
  Outdoors,                               !- Outside Boundary Condition
  ,                                       !- Outside Boundary Condition Object
  SunExposed,                             !- Sun Exposure
  WindExposed,                            !- Wind Exposure
  ,                                       !- View Factor to Ground
  ,                                       !- Number of Vertices
  7.53507039083872, -3.048, 2.4384,       !- X,Y,Z Vertex 1 {m}
  7.53507039083872, -3.048, 0,            !- X,Y,Z Vertex 2 {m}
  13.6310703908387, -3.048, 0,            !- X,Y,Z Vertex 3 {m}
  13.6310703908387, -3.048, 2.4384;       !- X,Y,Z Vertex 4 {m}

OS:Surface,
  {3e3870fe-a81e-4143-aabe-b0741515bd7a}, !- Handle
  Surface 6,                              !- Name
  RoofCeiling,                            !- Surface Type
  ,                                       !- Construction Name
  {fd48bd54-2bcd-422d-a74e-cd01a9005339}, !- Space Name
  Surface,                                !- Outside Boundary Condition
  {16eee38f-cfe1-410e-9d12-2851edfb3159}, !- Outside Boundary Condition Object
  NoSun,                                  !- Sun Exposure
  NoWind,                                 !- Wind Exposure
  ,                                       !- View Factor to Ground
  ,                                       !- Number of Vertices
  13.6310703908387, -3.048, 2.4384,       !- X,Y,Z Vertex 1 {m}
  13.6310703908387, 3.048, 2.4384,        !- X,Y,Z Vertex 2 {m}
  7.53507039083872, 3.048, 2.4384,        !- X,Y,Z Vertex 3 {m}
  7.53507039083872, -3.048, 2.4384;       !- X,Y,Z Vertex 4 {m}

OS:SpaceType,
  {8f9edeb1-9853-4d1c-8e7a-94803aa4e318}, !- Handle
  Space Type 1,                           !- Name
  ,                                       !- Default Construction Set Name
  ,                                       !- Default Schedule Set Name
  ,                                       !- Group Rendering Name
  ,                                       !- Design Specification Outdoor Air Object Name
  ,                                       !- Standards Template
  ,                                       !- Standards Building Type
  garage;                                 !- Standards Space Type

OS:Space,
  {e5ac38a8-a5ba-4e2c-9f6e-cd4e6f9a213b}, !- Handle
  living space,                           !- Name
  {e0479517-937e-49f1-819e-24e68e1af6a6}, !- Space Type Name
  ,                                       !- Default Construction Set Name
  ,                                       !- Default Schedule Set Name
  -0,                                     !- Direction of Relative North {deg}
  0,                                      !- X Origin {m}
  0,                                      !- Y Origin {m}
  0,                                      !- Z Origin {m}
  ,                                       !- Building Story Name
  {df250726-9255-455c-a0e0-0ab539bb19a1}, !- Thermal Zone Name
  ,                                       !- Part of Total Floor Area
  ,                                       !- Design Specification Outdoor Air Object Name
  {efd1e60b-f7fe-450d-8892-05b0b14bcfb3}; !- Building Unit Name

OS:Surface,
  {9cdb1797-23fc-40f8-a338-bd811c6d667f}, !- Handle
  Surface 7,                              !- Name
  Floor,                                  !- Surface Type
  ,                                       !- Construction Name
  {e5ac38a8-a5ba-4e2c-9f6e-cd4e6f9a213b}, !- Space Name
  Foundation,                             !- Outside Boundary Condition
  ,                                       !- Outside Boundary Condition Object
  NoSun,                                  !- Sun Exposure
  NoWind,                                 !- Wind Exposure
  ,                                       !- View Factor to Ground
  ,                                       !- Number of Vertices
  0, 0, 0,                                !- X,Y,Z Vertex 1 {m}
  0, 6.81553519541936, 0,                 !- X,Y,Z Vertex 2 {m}
  13.6310703908387, 6.81553519541936, 0,  !- X,Y,Z Vertex 3 {m}
  13.6310703908387, 3.048, 0,             !- X,Y,Z Vertex 4 {m}
  7.53507039083872, 3.048, 0,             !- X,Y,Z Vertex 5 {m}
  7.53507039083872, 0, 0;                 !- X,Y,Z Vertex 6 {m}

OS:Surface,
  {f853a6ab-2367-434e-9e7f-eda04bc4ce96}, !- Handle
  Surface 8,                              !- Name
  Wall,                                   !- Surface Type
  ,                                       !- Construction Name
  {e5ac38a8-a5ba-4e2c-9f6e-cd4e6f9a213b}, !- Space Name
  Outdoors,                               !- Outside Boundary Condition
  ,                                       !- Outside Boundary Condition Object
  SunExposed,                             !- Sun Exposure
  WindExposed,                            !- Wind Exposure
  ,                                       !- View Factor to Ground
  ,                                       !- Number of Vertices
  0, 6.81553519541936, 2.4384,            !- X,Y,Z Vertex 1 {m}
  0, 6.81553519541936, 0,                 !- X,Y,Z Vertex 2 {m}
  0, 0, 0,                                !- X,Y,Z Vertex 3 {m}
  0, 0, 2.4384;                           !- X,Y,Z Vertex 4 {m}

OS:Surface,
  {5c63618e-fc84-4798-8f62-6a33c420844d}, !- Handle
  Surface 9,                              !- Name
  Wall,                                   !- Surface Type
  ,                                       !- Construction Name
  {e5ac38a8-a5ba-4e2c-9f6e-cd4e6f9a213b}, !- Space Name
  Outdoors,                               !- Outside Boundary Condition
  ,                                       !- Outside Boundary Condition Object
  SunExposed,                             !- Sun Exposure
  WindExposed,                            !- Wind Exposure
  ,                                       !- View Factor to Ground
  ,                                       !- Number of Vertices
  13.6310703908387, 6.81553519541936, 2.4384, !- X,Y,Z Vertex 1 {m}
  13.6310703908387, 6.81553519541936, 0,  !- X,Y,Z Vertex 2 {m}
  0, 6.81553519541936, 0,                 !- X,Y,Z Vertex 3 {m}
  0, 6.81553519541936, 2.4384;            !- X,Y,Z Vertex 4 {m}

OS:Surface,
  {f59c1949-b936-4a20-8421-eaae2e84d6d2}, !- Handle
  Surface 10,                             !- Name
  Wall,                                   !- Surface Type
  ,                                       !- Construction Name
  {e5ac38a8-a5ba-4e2c-9f6e-cd4e6f9a213b}, !- Space Name
  Outdoors,                               !- Outside Boundary Condition
  ,                                       !- Outside Boundary Condition Object
  SunExposed,                             !- Sun Exposure
  WindExposed,                            !- Wind Exposure
  ,                                       !- View Factor to Ground
  ,                                       !- Number of Vertices
  13.6310703908387, 3.048, 2.4384,        !- X,Y,Z Vertex 1 {m}
  13.6310703908387, 3.048, 0,             !- X,Y,Z Vertex 2 {m}
  13.6310703908387, 6.81553519541936, 0,  !- X,Y,Z Vertex 3 {m}
  13.6310703908387, 6.81553519541936, 2.4384; !- X,Y,Z Vertex 4 {m}

OS:Surface,
  {71e40146-9cef-4bdc-b788-e6453cb23ef6}, !- Handle
  Surface 11,                             !- Name
  Wall,                                   !- Surface Type
  ,                                       !- Construction Name
  {e5ac38a8-a5ba-4e2c-9f6e-cd4e6f9a213b}, !- Space Name
  Surface,                                !- Outside Boundary Condition
  {dfdae500-c69d-45e3-a874-fbfe3aac65aa}, !- Outside Boundary Condition Object
  NoSun,                                  !- Sun Exposure
  NoWind,                                 !- Wind Exposure
  ,                                       !- View Factor to Ground
  ,                                       !- Number of Vertices
  7.53507039083872, 3.048, 2.4384,        !- X,Y,Z Vertex 1 {m}
  7.53507039083872, 3.048, 0,             !- X,Y,Z Vertex 2 {m}
  13.6310703908387, 3.048, 0,             !- X,Y,Z Vertex 3 {m}
  13.6310703908387, 3.048, 2.4384;        !- X,Y,Z Vertex 4 {m}

OS:Surface,
  {4c7c026c-4b4f-4542-835c-8049b54ef99d}, !- Handle
  Surface 12,                             !- Name
  Wall,                                   !- Surface Type
  ,                                       !- Construction Name
  {e5ac38a8-a5ba-4e2c-9f6e-cd4e6f9a213b}, !- Space Name
  Surface,                                !- Outside Boundary Condition
  {b650d143-5258-46b4-afcd-3f0ba8980fdf}, !- Outside Boundary Condition Object
  NoSun,                                  !- Sun Exposure
  NoWind,                                 !- Wind Exposure
  ,                                       !- View Factor to Ground
  ,                                       !- Number of Vertices
  7.53507039083872, 0, 2.4384,            !- X,Y,Z Vertex 1 {m}
  7.53507039083872, 0, 0,                 !- X,Y,Z Vertex 2 {m}
  7.53507039083872, 3.048, 0,             !- X,Y,Z Vertex 3 {m}
  7.53507039083872, 3.048, 2.4384;        !- X,Y,Z Vertex 4 {m}

OS:Surface,
  {b4d5655e-9d06-40f1-8feb-45e664de71e7}, !- Handle
  Surface 13,                             !- Name
  Wall,                                   !- Surface Type
  ,                                       !- Construction Name
  {e5ac38a8-a5ba-4e2c-9f6e-cd4e6f9a213b}, !- Space Name
  Outdoors,                               !- Outside Boundary Condition
  ,                                       !- Outside Boundary Condition Object
  SunExposed,                             !- Sun Exposure
  WindExposed,                            !- Wind Exposure
  ,                                       !- View Factor to Ground