!- NOTE: Auto-generated from /test/osw_files/SFD_2000sqft_2story_FB_GRG_UA_3Beds_2Baths_Denver_WHTank_HWFixtures.osw

OS:Version,
  {92e54a61-8b0c-40de-bc2c-fe04246d673b}, !- Handle
  2.7.0;                                  !- Version Identifier

OS:Building,
  {5757dc1a-7111-47d9-8fee-f408deebad61}, !- Handle
  Building 1,                             !- Name
  ,                                       !- Building Sector Type
  0,                                      !- North Axis {deg}
  ,                                       !- Nominal Floor to Floor Height {m}
  ,                                       !- Space Type Name
  ,                                       !- Default Construction Set Name
  ,                                       !- Default Schedule Set Name
  3,                                      !- Standards Number of Stories
  2,                                      !- Standards Number of Above Ground Stories
  ,                                       !- Standards Template
  singlefamilydetached,                   !- Standards Building Type
  1;                                      !- Standards Number of Living Units

OS:Facility,
  {82dd5bee-109c-474b-98f8-333940019db9}; !- Handle

OS:Site,
  {80626e8c-4483-4416-8871-d40d2324777b}, !- Handle
  Denver Intl Ap_CO_USA,                  !- Name
  39.83,                                  !- Latitude {deg}
  -104.65,                                !- Longitude {deg}
  -7,                                     !- Time Zone {hr}
  1650,                                   !- Elevation {m}
  ;                                       !- Terrain

OS:SimulationControl,
  {d11948b5-85f1-44ec-95ca-552ff624f8ac}, !- Handle
  ,                                       !- Do Zone Sizing Calculation
  ,                                       !- Do System Sizing Calculation
  ,                                       !- Do Plant Sizing Calculation
  No;                                     !- Run Simulation for Sizing Periods

OS:Sizing:Parameters,
  {45c4b459-953f-425e-8bdf-92d244b3f305}, !- Handle
  1.25,                                   !- Heating Sizing Factor
  1.15;                                   !- Cooling Sizing Factor

OS:Timestep,
  {98735f4e-888a-4327-8f1d-62638c3e9082}, !- Handle
  6;                                      !- Number of Timesteps per Hour

OS:ShadowCalculation,
  {b361253e-6ea1-4837-b9f9-1e735abf1f0e}, !- Handle
  20,                                     !- Calculation Frequency
  200;                                    !- Maximum Figures in Shadow Overlap Calculations

OS:HeatBalanceAlgorithm,
  {2be17b8f-8139-4a84-bb88-68a516326326}, !- Handle
  MoisturePenetrationDepthConductionTransferFunction, !- Algorithm
  200;                                    !- Surface Temperature Upper Limit {C}

OS:RunPeriod,
  {50ae6dbd-50fc-4083-ac1e-36a07b1a350e}, !- Handle
  Run Period 1,                           !- Name
  1,                                      !- Begin Month
  1,                                      !- Begin Day of Month
  12,                                     !- End Month
  31,                                     !- End Day of Month
  ,                                       !- Use Weather File Holidays and Special Days
  ,                                       !- Use Weather File Daylight Saving Period
  ,                                       !- Apply Weekend Holiday Rule
  ,                                       !- Use Weather File Rain Indicators
  ,                                       !- Use Weather File Snow Indicators
  ;                                       !- Number of Times Runperiod to be Repeated

OS:LifeCycleCost:Parameters,
  {80a40daa-4234-4a77-a39c-46e5b9df9a52}, !- Handle
  ,                                       !- Analysis Type
  ,                                       !- Discounting Convention
  ,                                       !- Inflation Approach
  ,                                       !- Real Discount Rate
  ,                                       !- Nominal Discount Rate
  ,                                       !- Inflation
  ,                                       !- Base Date Month
  ,                                       !- Base Date Year
  ,                                       !- Service Date Month
  ,                                       !- Service Date Year
  ;                                       !- Length of Study Period in Years

OS:SurfaceConvectionAlgorithm:Outside,
  {e93f5270-9742-44d3-a1d1-741dd113b7d0}, !- Handle
  DOE-2;                                  !- Algorithm

OS:SurfaceConvectionAlgorithm:Inside,
  {4cb988ad-5559-41ee-b3c7-81b27b0cd7b2}, !- Handle
  TARP;                                   !- Algorithm

OS:ZoneCapacitanceMultiplier:ResearchSpecial,
  {754c72d2-318c-40bc-9c5f-42adb28ee50c}, !- Handle
  ,                                       !- Temperature Capacity Multiplier
  1,                                      !- Humidity Capacity Multiplier
  ;                                       !- Carbon Dioxide Capacity Multiplier

OS:ThermalZone,
  {7314665c-5b3a-4793-8a4f-e666bf6b48ab}, !- Handle
  living zone,                            !- Name
  ,                                       !- Multiplier
  ,                                       !- Ceiling Height {m}
  ,                                       !- Volume {m3}
  ,                                       !- Floor Area {m2}
  ,                                       !- Zone Inside Convection Algorithm
  ,                                       !- Zone Outside Convection Algorithm
  ,                                       !- Zone Conditioning Equipment List Name
  {a5111b31-6bc5-4cd9-90df-f03e93ad2280}, !- Zone Air Inlet Port List
  {dedf78bb-9aa1-4a49-a2cc-769e7468410e}, !- Zone Air Exhaust Port List
  {de2be8e1-606f-4d3b-8e1a-f6f242d5343f}, !- Zone Air Node Name
  {282eda98-c745-4b89-babe-10ab9ee179f9}, !- Zone Return Air Port List
  ,                                       !- Primary Daylighting Control Name
  ,                                       !- Fraction of Zone Controlled by Primary Daylighting Control
  ,                                       !- Secondary Daylighting Control Name
  ,                                       !- Fraction of Zone Controlled by Secondary Daylighting Control
  ,                                       !- Illuminance Map Name
  ,                                       !- Group Rendering Name
  ,                                       !- Thermostat Name
  No;                                     !- Use Ideal Air Loads

OS:Node,
  {13f837e2-f90e-4add-9d1a-11fc9955402b}, !- Handle
  Node 1,                                 !- Name
  {de2be8e1-606f-4d3b-8e1a-f6f242d5343f}, !- Inlet Port
  ;                                       !- Outlet Port

OS:Connection,
  {de2be8e1-606f-4d3b-8e1a-f6f242d5343f}, !- Handle
  {ee96f54b-a3a7-40d4-a34e-7c195ce3783d}, !- Name
  {7314665c-5b3a-4793-8a4f-e666bf6b48ab}, !- Source Object
  11,                                     !- Outlet Port
  {13f837e2-f90e-4add-9d1a-11fc9955402b}, !- Target Object
  2;                                      !- Inlet Port

OS:PortList,
  {a5111b31-6bc5-4cd9-90df-f03e93ad2280}, !- Handle
  {d5f96040-20d0-4905-b083-1debc0aa743a}, !- Name
  {7314665c-5b3a-4793-8a4f-e666bf6b48ab}; !- HVAC Component

OS:PortList,
  {dedf78bb-9aa1-4a49-a2cc-769e7468410e}, !- Handle
  {ef0cac32-cea1-4257-8450-5af3eee909e6}, !- Name
  {7314665c-5b3a-4793-8a4f-e666bf6b48ab}; !- HVAC Component

OS:PortList,
  {282eda98-c745-4b89-babe-10ab9ee179f9}, !- Handle
  {bc0e2ca9-4546-42ae-9883-623d227f9005}, !- Name
  {7314665c-5b3a-4793-8a4f-e666bf6b48ab}; !- HVAC Component

OS:Sizing:Zone,
  {7d01bcd6-dcf5-410d-9d2e-71ae4a2f0296}, !- Handle
  {7314665c-5b3a-4793-8a4f-e666bf6b48ab}, !- Zone or ZoneList Name
  SupplyAirTemperature,                   !- Zone Cooling Design Supply Air Temperature Input Method
  14,                                     !- Zone Cooling Design Supply Air Temperature {C}
  11.11,                                  !- Zone Cooling Design Supply Air Temperature Difference {deltaC}
  SupplyAirTemperature,                   !- Zone Heating Design Supply Air Temperature Input Method
  40,                                     !- Zone Heating Design Supply Air Temperature {C}
  11.11,                                  !- Zone Heating Design Supply Air Temperature Difference {deltaC}
  0.0085,                                 !- Zone Cooling Design Supply Air Humidity Ratio {kg-H2O/kg-air}
  0.008,                                  !- Zone Heating Design Supply Air Humidity Ratio {kg-H2O/kg-air}
  ,                                       !- Zone Heating Sizing Factor
  ,                                       !- Zone Cooling Sizing Factor
  DesignDay,                              !- Cooling Design Air Flow Method
  ,                                       !- Cooling Design Air Flow Rate {m3/s}
  ,                                       !- Cooling Minimum Air Flow per Zone Floor Area {m3/s-m2}
  ,                                       !- Cooling Minimum Air Flow {m3/s}
  ,                                       !- Cooling Minimum Air Flow Fraction
  DesignDay,                              !- Heating Design Air Flow Method
  ,                                       !- Heating Design Air Flow Rate {m3/s}
  ,                                       !- Heating Maximum Air Flow per Zone Floor Area {m3/s-m2}
  ,                                       !- Heating Maximum Air Flow {m3/s}
  ,                                       !- Heating Maximum Air Flow Fraction
  ,                                       !- Design Zone Air Distribution Effectiveness in Cooling Mode
  ,                                       !- Design Zone Air Distribution Effectiveness in Heating Mode
  No,                                     !- Account for Dedicated Outdoor Air System
  NeutralSupplyAir,                       !- Dedicated Outdoor Air System Control Strategy
  autosize,                               !- Dedicated Outdoor Air Low Setpoint Temperature for Design {C}
  autosize;                               !- Dedicated Outdoor Air High Setpoint Temperature for Design {C}

OS:ZoneHVAC:EquipmentList,
  {0a06e1e9-dda5-4032-831c-4831c790005b}, !- Handle
  Zone HVAC Equipment List 1,             !- Name
  {7314665c-5b3a-4793-8a4f-e666bf6b48ab}; !- Thermal Zone

OS:ThermalZone,
  {9c53fbc4-90a8-4489-8195-db4ad48a1105}, !- Handle
  garage zone,                            !- Name
  ,                                       !- Multiplier
  ,                                       !- Ceiling Height {m}
  ,                                       !- Volume {m3}
  ,                                       !- Floor Area {m2}
  ,                                       !- Zone Inside Convection Algorithm
  ,                                       !- Zone Outside Convection Algorithm
  ,                                       !- Zone Conditioning Equipment List Name
  {a1b970dd-f20e-445f-ad4e-ee3c7d4bfeaa}, !- Zone Air Inlet Port List
  {f2790bdf-a98e-4626-967b-6a74b35bf620}, !- Zone Air Exhaust Port List
  {df71f80c-90ef-4ed0-9857-dee2dbb0ed34}, !- Zone Air Node Name
  {9a2f7300-ee08-447a-ab43-e50ef29f5d77}, !- Zone Return Air Port List
  ,                                       !- Primary Daylighting Control Name
  ,                                       !- Fraction of Zone Controlled by Primary Daylighting Control
  ,                                       !- Secondary Daylighting Control Name
  ,                                       !- Fraction of Zone Controlled by Secondary Daylighting Control
  ,                                       !- Illuminance Map Name
  ,                                       !- Group Rendering Name
  ,                                       !- Thermostat Name
  No;                                     !- Use Ideal Air Loads

OS:Node,
  {3431d57e-192b-4a12-83c4-575ced1c2477}, !- Handle
  Node 2,                                 !- Name
  {df71f80c-90ef-4ed0-9857-dee2dbb0ed34}, !- Inlet Port
  ;                                       !- Outlet Port

OS:Connection,
  {df71f80c-90ef-4ed0-9857-dee2dbb0ed34}, !- Handle
  {256d1a39-b0ca-4137-a03c-d7c0f97bd67c}, !- Name
  {9c53fbc4-90a8-4489-8195-db4ad48a1105}, !- Source Object
  11,                                     !- Outlet Port
  {3431d57e-192b-4a12-83c4-575ced1c2477}, !- Target Object
  2;                                      !- Inlet Port

OS:PortList,
  {a1b970dd-f20e-445f-ad4e-ee3c7d4bfeaa}, !- Handle
  {248aeafc-ae69-4cce-a777-70279b6ddf75}, !- Name
  {9c53fbc4-90a8-4489-8195-db4ad48a1105}; !- HVAC Component

OS:PortList,
  {f2790bdf-a98e-4626-967b-6a74b35bf620}, !- Handle
  {28e894d5-b158-4757-8adb-bd9cc881f675}, !- Name
  {9c53fbc4-90a8-4489-8195-db4ad48a1105}; !- HVAC Component

OS:PortList,
  {9a2f7300-ee08-447a-ab43-e50ef29f5d77}, !- Handle
  {9820e7e6-2813-483d-bd60-130ca8c45381}, !- Name
  {9c53fbc4-90a8-4489-8195-db4ad48a1105}; !- HVAC Component

OS:Sizing:Zone,
  {9259c82a-be9d-455e-b1c1-534f0bec594d}, !- Handle
  {9c53fbc4-90a8-4489-8195-db4ad48a1105}, !- Zone or ZoneList Name
  SupplyAirTemperature,                   !- Zone Cooling Design Supply Air Temperature Input Method
  14,                                     !- Zone Cooling Design Supply Air Temperature {C}
  11.11,                                  !- Zone Cooling Design Supply Air Temperature Difference {deltaC}
  SupplyAirTemperature,                   !- Zone Heating Design Supply Air Temperature Input Method
  40,                                     !- Zone Heating Design Supply Air Temperature {C}
  11.11,                                  !- Zone Heating Design Supply Air Temperature Difference {deltaC}
  0.0085,                                 !- Zone Cooling Design Supply Air Humidity Ratio {kg-H2O/kg-air}
  0.008,                                  !- Zone Heating Design Supply Air Humidity Ratio {kg-H2O/kg-air}
  ,                                       !- Zone Heating Sizing Factor
  ,                                       !- Zone Cooling Sizing Factor
  DesignDay,                              !- Cooling Design Air Flow Method
  ,                                       !- Cooling Design Air Flow Rate {m3/s}
  ,                                       !- Cooling Minimum Air Flow per Zone Floor Area {m3/s-m2}
  ,                                       !- Cooling Minimum Air Flow {m3/s}
  ,                                       !- Cooling Minimum Air Flow Fraction
  DesignDay,                              !- Heating Design Air Flow Method
  ,                                       !- Heating Design Air Flow Rate {m3/s}
  ,                                       !- Heating Maximum Air Flow per Zone Floor Area {m3/s-m2}
  ,                                       !- Heating Maximum Air Flow {m3/s}
  ,                                       !- Heating Maximum Air Flow Fraction
  ,                                       !- Design Zone Air Distribution Effectiveness in Cooling Mode
  ,                                       !- Design Zone Air Distribution Effectiveness in Heating Mode
  No,                                     !- Account for Dedicated Outdoor Air System
  NeutralSupplyAir,                       !- Dedicated Outdoor Air System Control Strategy
  autosize,                               !- Dedicated Outdoor Air Low Setpoint Temperature for Design {C}
  autosize;                               !- Dedicated Outdoor Air High Setpoint Temperature for Design {C}

OS:ZoneHVAC:EquipmentList,
  {d686a4d6-db60-4340-bd56-ac180d165cb0}, !- Handle
  Zone HVAC Equipment List 2,             !- Name
  {9c53fbc4-90a8-4489-8195-db4ad48a1105}; !- Thermal Zone

OS:Space,
  {b102dc43-3609-4f5f-b082-dd83fd3bb508}, !- Handle
  garage space,                           !- Name
  {1fad9036-00ae-4ae5-b840-e160a90688a4}, !- Space Type Name
  ,                                       !- Default Construction Set Name
  ,                                       !- Default Schedule Set Name
  -0,                                     !- Direction of Relative North {deg}
  0,                                      !- X Origin {m}
  0,                                      !- Y Origin {m}
  0,                                      !- Z Origin {m}
  ,                                       !- Building Story Name
  {9c53fbc4-90a8-4489-8195-db4ad48a1105}; !- Thermal Zone Name

OS:Surface,
  {1a4680f3-015b-400e-8457-ff4dd432d4ac}, !- Handle
  Surface 1,                              !- Name
  Floor,                                  !- Surface Type
  ,                                       !- Construction Name
  {b102dc43-3609-4f5f-b082-dd83fd3bb508}, !- Space Name
  Foundation,                             !- Outside Boundary Condition
  ,                                       !- Outside Boundary Condition Object
  NoSun,                                  !- Sun Exposure
  NoWind,                                 !- Wind Exposure
  ,                                       !- View Factor to Ground
  ,                                       !- Number of Vertices
  5.57695129776527, -3.048, 0,            !- X,Y,Z Vertex 1 {m}
  5.57695129776527, 3.048, 0,             !- X,Y,Z Vertex 2 {m}
  11.6729512977653, 3.048, 0,             !- X,Y,Z Vertex 3 {m}
  11.6729512977653, -3.048, 0;            !- X,Y,Z Vertex 4 {m}

OS:Surface,
  {11390e62-f063-4b17-8b9e-0ccbbb2d6f94}, !- Handle
  Surface 2,                              !- Name
  Wall,                                   !- Surface Type
  ,                                       !- Construction Name
  {b102dc43-3609-4f5f-b082-dd83fd3bb508}, !- Space Name
  Surface,                                !- Outside Boundary Condition
  {3b4782b8-4b4c-4941-8d71-fa8e7ba7c7b8}, !- Outside Boundary Condition Object
  NoSun,                                  !- Sun Exposure
  NoWind,                                 !- Wind Exposure
  ,                                       !- View Factor to Ground
  ,                                       !- Number of Vertices
  5.57695129776527, 3.048, 2.4384,        !- X,Y,Z Vertex 1 {m}
  5.57695129776527, 3.048, 0,             !- X,Y,Z Vertex 2 {m}
  5.57695129776527, 0, 0,                 !- X,Y,Z Vertex 3 {m}
  5.57695129776527, 0, 2.4384;            !- X,Y,Z Vertex 4 {m}

OS:Surface,
  {5fb0c7e4-725f-4e8b-b8b4-0b45822ae356}, !- Handle
  Surface 3,                              !- Name
  Wall,                                   !- Surface Type
  ,                                       !- Construction Name
  {b102dc43-3609-4f5f-b082-dd83fd3bb508}, !- Space Name
  Surface,                                !- Outside Boundary Condition
  {4bd44282-57d3-4f1f-a1f6-e5fdeeb7e454}, !- Outside Boundary Condition Object
  NoSun,                                  !- Sun Exposure
  NoWind,                                 !- Wind Exposure
  ,                                       !- View Factor to Ground
  ,                                       !- Number of Vertices
  11.6729512977653, 3.048, 2.4384,        !- X,Y,Z Vertex 1 {m}
  11.6729512977653, 3.048, 0,             !- X,Y,Z Vertex 2 {m}
  5.57695129776527, 3.048, 0,             !- X,Y,Z Vertex 3 {m}
  5.57695129776527, 3.048, 2.4384;        !- X,Y,Z Vertex 4 {m}

OS:Surface,
  {6c49418a-0246-44e6-8782-15dacc143a1e}, !- Handle
  Surface 4,                              !- Name
  Wall,                                   !- Surface Type
  ,                                       !- Construction Name
  {b102dc43-3609-4f5f-b082-dd83fd3bb508}, !- Space Name
  Outdoors,                               !- Outside Boundary Condition
  ,                                       !- Outside Boundary Condition Object
  SunExposed,                             !- Sun Exposure
  WindExposed,                            !- Wind Exposure
  ,                                       !- View Factor to Ground
  ,                                       !- Number of Vertices
  11.6729512977653, -3.048, 2.4384,       !- X,Y,Z Vertex 1 {m}
  11.6729512977653, -3.048, 0,            !- X,Y,Z Vertex 2 {m}
  11.6729512977653, 3.048, 0,             !- X,Y,Z Vertex 3 {m}
  11.6729512977653, 3.048, 2.4384;        !- X,Y,Z Vertex 4 {m}

OS:Surface,
  {46a7f3bc-0789-431d-978f-e119d42d5a11}, !- Handle
  Surface 5,                              !- Name
  Wall,                                   !- Surface Type
  ,                                       !- Construction Name
  {b102dc43-3609-4f5f-b082-dd83fd3bb508}, !- Space Name
  Outdoors,                               !- Outside Boundary Condition
  ,                                       !- Outside Boundary Condition Object
  SunExposed,                             !- Sun Exposure
  WindExposed,                            !- Wind Exposure
  ,                                       !- View Factor to Ground
  ,                                       !- Number of Vertices
  5.57695129776527, -3.048, 2.4384,       !- X,Y,Z Vertex 1 {m}
  5.57695129776527, -3.048, 0,            !- X,Y,Z Vertex 2 {m}
  11.6729512977653, -3.048, 0,            !- X,Y,Z Vertex 3 {m}
  11.6729512977653, -3.048, 2.4384;       !- X,Y,Z Vertex 4 {m}

OS:Surface,
  {e5eedc83-09dd-4a9d-b82c-3011078d3785}, !- Handle
  Surface 6,                              !- Name
  RoofCeiling,                            !- Surface Type
  ,                                       !- Construction Name
  {b102dc43-3609-4f5f-b082-dd83fd3bb508}, !- Space Name
  Surface,                                !- Outside Boundary Condition
  {3062d55c-f55d-488b-8519-2cbeff969750}, !- Outside Boundary Condition Object
  NoSun,                                  !- Sun Exposure
  NoWind,                                 !- Wind Exposure
  ,                                       !- View Factor to Ground
  ,                                       !- Number of Vertices
  11.6729512977653, -3.048, 2.4384,       !- X,Y,Z Vertex 1 {m}
  11.6729512977653, 3.048, 2.4384,        !- X,Y,Z Vertex 2 {m}
  5.57695129776527, 3.048, 2.4384,        !- X,Y,Z Vertex 3 {m}
  5.57695129776527, -3.048, 2.4384;       !- X,Y,Z Vertex 4 {m}

OS:SpaceType,
  {1fad9036-00ae-4ae5-b840-e160a90688a4}, !- Handle
  Space Type 1,                           !- Name
  ,                                       !- Default Construction Set Name
  ,                                       !- Default Schedule Set Name
  ,                                       !- Group Rendering Name
  ,                                       !- Design Specification Outdoor Air Object Name
  ,                                       !- Standards Template
  ,                                       !- Standards Building Type
  garage;                                 !- Standards Space Type

OS:Space,
  {dce65aad-adfb-4cfc-b8d9-6b09f8bf1259}, !- Handle
  living space,                           !- Name
  {fcb0e9d7-848f-4d7f-86c3-e6f61d0ca23c}, !- Space Type Name
  ,                                       !- Default Construction Set Name
  ,                                       !- Default Schedule Set Name
  -0,                                     !- Direction of Relative North {deg}
  0,                                      !- X Origin {m}
  0,                                      !- Y Origin {m}
  0,                                      !- Z Origin {m}
  ,                                       !- Building Story Name
  {7314665c-5b3a-4793-8a4f-e666bf6b48ab}, !- Thermal Zone Name
  ,                                       !- Part of Total Floor Area
  ,                                       !- Design Specification Outdoor Air Object Name
  {866b3648-62dc-4ac3-a934-9d6cfdc99608}; !- Building Unit Name

OS:Surface,
  {c33300e4-3df0-4624-833f-f119370b98d7}, !- Handle
  Surface 7,                              !- Name
  Floor,                                  !- Surface Type
  ,                                       !- Construction Name
  {dce65aad-adfb-4cfc-b8d9-6b09f8bf1259}, !- Space Name
  Surface,                                !- Outside Boundary Condition
  {272e2e76-3f1a-41c2-962f-6732d2e80fcc}, !- Outside Boundary Condition Object
  NoSun,                                  !- Sun Exposure
  NoWind,                                 !- Wind Exposure
  ,                                       !- View Factor to Ground
  ,                                       !- Number of Vertices
  0, 0, 0,                                !- X,Y,Z Vertex 1 {m}
  0, 5.83647564888264, 0,                 !- X,Y,Z Vertex 2 {m}
  11.6729512977653, 5.83647564888264, 0,  !- X,Y,Z Vertex 3 {m}
  11.6729512977653, 3.048, 0,             !- X,Y,Z Vertex 4 {m}
  5.57695129776527, 3.048, 0,             !- X,Y,Z Vertex 5 {m}
  5.57695129776527, 0, 0;                 !- X,Y,Z Vertex 6 {m}

OS:Surface,
  {447689e3-af89-42bc-aef4-2d167e5fb116}, !- Handle
  Surface 8,                              !- Name
  Wall,                                   !- Surface Type
  ,                                       !- Construction Name
  {dce65aad-adfb-4cfc-b8d9-6b09f8bf1259}, !- Space Name
  Outdoors,                               !- Outside Boundary Condition
  ,                                       !- Outside Boundary Condition Object
  SunExposed,                             !- Sun Exposure
  WindExposed,                            !- Wind Exposure
  ,                                       !- View Factor to Ground
  ,                                       !- Number of Vertices
  0, 5.83647564888264, 2.4384,            !- X,Y,Z Vertex 1 {m}
  0, 5.83647564888264, 0,                 !- X,Y,Z Vertex 2 {m}
  0, 0, 0,                                !- X,Y,Z Vertex 3 {m}
  0, 0, 2.4384;                           !- X,Y,Z Vertex 4 {m}

OS:Surface,
  {d32a03c2-a06d-400d-b673-8849f41aa8c5}, !- Handle
  Surface 9,                              !- Name
  Wall,                                   !- Surface Type
  ,                                       !- Construction Name
  {dce65aad-adfb-4cfc-b8d9-6b09f8bf1259}, !- Space Name
  Outdoors,                               !- Outside Boundary Condition
  ,                                       !- Outside Boundary Condition Object
  SunExposed,                             !- Sun Exposure
  WindExposed,                            !- Wind Exposure
  ,                                       !- View Factor to Ground
  ,                                       !- Number of Vertices
  11.6729512977653, 5.83647564888264, 2.4384, !- X,Y,Z Vertex 1 {m}
  11.6729512977653, 5.83647564888264, 0,  !- X,Y,Z Vertex 2 {m}
  0, 5.83647564888264, 0,                 !- X,Y,Z Vertex 3 {m}
  0, 5.83647564888264, 2.4384;            !- X,Y,Z Vertex 4 {m}

OS:Surface,
  {741817cf-bfab-4c64-867a-8a17376d8222}, !- Handle
  Surface 10,                             !- Name
  Wall,                                   !- Surface Type
  ,                                       !- Construction Name
  {dce65aad-adfb-4cfc-b8d9-6b09f8bf1259}, !- Space Name
  Outdoors,                               !- Outside Boundary Condition
  ,                                       !- Outside Boundary Condition Object
  SunExposed,                             !- Sun Exposure
  WindExposed,                            !- Wind Exposure
  ,                                       !- View Factor to Ground
  ,                                       !- Number of Vertices
  11.6729512977653, 3.048, 2.4384,        !- X,Y,Z Vertex 1 {m}
  11.6729512977653, 3.048, 0,             !- X,Y,Z Vertex 2 {m}
  11.6729512977653, 5.83647564888264, 0,  !- X,Y,Z Vertex 3 {m}
  11.6729512977653, 5.83647564888264, 2.4384; !- X,Y,Z Vertex 4 {m}

OS:Surface,
  {4bd44282-57d3-4f1f-a1f6-e5fdeeb7e454}, !- Handle
  Surface 11,                             !- Name
  Wall,                                   !- Surface Type
  ,                                       !- Construction Name
  {dce65aad-adfb-4cfc-b8d9-6b09f8bf1259}, !- Space Name
  Surface,                                !- Outside Boundary Condition
  {5fb0c7e4-725f-4e8b-b8b4-0b45822ae356}, !- Outside Boundary Condition Object
  NoSun,                                  !- Sun Exposure
  NoWind,                                 !- Wind Exposure
  ,                                       !- View Factor to Ground
  ,                                       !- Number of Vertices
  5.57695129776527, 3.048, 2.4384,        !- X,Y,Z Vertex 1 {m}
  5.57695129776527, 3.048, 0,             !- X,Y,Z Vertex 2 {m}
  11.6729512977653, 3.048, 0,             !- X,Y,Z Vertex 3 {m}
  11.6729512977653, 3.048, 2.4384;        !- X,Y,Z Vertex 4 {m}

OS:Surface,
  {3b4782b8-4b4c-4941-8d71-fa8e7ba7c7b8}, !- Handle
  Surface 12,                             !- Name
  Wall,                                   !- Surface Type
  ,                                       !- Construction Name
  {dce65aad-adfb-4cfc-b8d9-6b09f8bf1259}, !- Space Name
  Surface,                                !- Outside Boundary Condition
  {11390e62-f063-4b17-8b9e-0ccbbb2d6f94}, !- Outside Boundary Condition Object
  NoSun,                                  !- Sun Exposure
  NoWind,                                 !- Wind Exposure
  ,                                       !- View Factor to Ground
  ,                                       !- Number of Vertices
  5.57695129776527, 0, 2.4384,            !- X,Y,Z Vertex 1 {m}
  5.57695129776527, 0, 0,                 !- X,Y,Z Vertex 2 {m}
  5.57695129776527, 3.048, 0,             !- X,Y,Z Vertex 3 {m}
  5.57695129776527, 3.048, 2.4384;        !- X,Y,Z Vertex 4 {m}

OS:Surface,
  {8bb6a837-9e6b-4d5d-b3cf-2f5c96d05d4e}, !- Handle
  Surface 13,                             !- Name
  Wall,                                   !- Surface Type
  ,                                       !- Construction Name
  {dce65aad-adfb-4cfc-b8d9-6b09f8bf1259}, !- Space Name
  Outdoors,                               !- Outside Boundary Condition
  ,                                       !- Outside Boundary Condition Object
  SunExposed,                             !- Sun Exposure
  WindExposed,                            !- Wind Exposure