!- NOTE: Auto-generated from /test/osw_files/SFA_4units_1story_SL_UA_3Beds_2Baths_Denver_GSHPVertBore.osw

OS:Version,
  {22ad4f87-3bea-4b95-8f63-cdd816f44964}, !- Handle
  2.6.0;                                  !- Version Identifier

OS:Building,
  {e2c83ffa-dc02-4301-90c4-967ea29d065b}, !- Handle
  Building 1,                             !- Name
  ,                                       !- Building Sector Type
  0,                                      !- North Axis {deg}
  ,                                       !- Nominal Floor to Floor Height {m}
  ,                                       !- Space Type Name
  ,                                       !- Default Construction Set Name
  ,                                       !- Default Schedule Set Name
  1,                                      !- Standards Number of Stories
  1,                                      !- Standards Number of Above Ground Stories
  singlefamilyattached,                   !- Standards Building Type
  4;                                      !- Standards Number of Living Units

OS:Facility,
  {e45f6bf9-c6ac-4d58-bdb9-5d25d9ed1b21}; !- Handle

OS:Site,
  {5772de4b-a553-4809-8304-8f07babc09c0}, !- Handle
  Denver Intl Ap_CO_USA,                  !- Name
  39.83,                                  !- Latitude {deg}
  -104.65,                                !- Longitude {deg}
  -7,                                     !- Time Zone {hr}
  1650,                                   !- Elevation {m}
  ;                                       !- Terrain

OS:SimulationControl,
  {840e972d-5073-4f11-b8bd-5912828ee1f8}, !- Handle
  ,                                       !- Do Zone Sizing Calculation
  ,                                       !- Do System Sizing Calculation
  ,                                       !- Do Plant Sizing Calculation
  No;                                     !- Run Simulation for Sizing Periods

OS:Sizing:Parameters,
  {73873371-b076-4bf4-bfc0-f879d558c4ac}, !- Handle
  1.25,                                   !- Heating Sizing Factor
  1.15;                                   !- Cooling Sizing Factor

OS:Timestep,
  {6ead4ede-15c0-4d28-a415-d4444057f91f}, !- Handle
  6;                                      !- Number of Timesteps per Hour

OS:ShadowCalculation,
  {fc2336e3-2567-4d79-ad35-1f8318c5b494}, !- Handle
  20,                                     !- Calculation Frequency
  200;                                    !- Maximum Figures in Shadow Overlap Calculations

OS:HeatBalanceAlgorithm,
  {b6f1ffab-01ef-4369-8083-9fbca2748cdd}, !- Handle
  ConductionTransferFunction,             !- Algorithm
  200;                                    !- Surface Temperature Upper Limit {C}

OS:RunPeriod,
  {c1e83bca-4cf8-40ad-a1f4-6d08d7dec781}, !- Handle
  Run Period 1,                           !- Name
  1,                                      !- Begin Month
  1,                                      !- Begin Day of Month
  12,                                     !- End Month
  31,                                     !- End Day of Month
  ,                                       !- Use Weather File Holidays and Special Days
  ,                                       !- Use Weather File Daylight Saving Period
  ,                                       !- Apply Weekend Holiday Rule
  ,                                       !- Use Weather File Rain Indicators
  ,                                       !- Use Weather File Snow Indicators
  ;                                       !- Number of Times Runperiod to be Repeated

OS:LifeCycleCost:Parameters,
  {14d0b6d2-de98-4bce-812c-54ebe7da8dd4}, !- Handle
  ,                                       !- Analysis Type
  ,                                       !- Discounting Convention
  ,                                       !- Inflation Approach
  ,                                       !- Real Discount Rate
  ,                                       !- Nominal Discount Rate
  ,                                       !- Inflation
  ,                                       !- Base Date Month
  ,                                       !- Base Date Year
  ,                                       !- Service Date Month
  ,                                       !- Service Date Year
  ;                                       !- Length of Study Period in Years

OS:ThermalZone,
  {df53a32a-1296-4d0e-b6b2-af76bb889d77}, !- Handle
  living zone,                            !- Name
  ,                                       !- Multiplier
  ,                                       !- Ceiling Height {m}
  ,                                       !- Volume {m3}
  ,                                       !- Floor Area {m2}
  ,                                       !- Zone Inside Convection Algorithm
  ,                                       !- Zone Outside Convection Algorithm
  ,                                       !- Zone Conditioning Equipment List Name
  {752569dd-5eb0-47a9-bf6d-47a66d1288cc}, !- Zone Air Inlet Port List
  {3924f938-09b2-4986-bc1e-9d7c7ca2030e}, !- Zone Air Exhaust Port List
  {1f25aba6-d419-4072-9789-b59f22123db3}, !- Zone Air Node Name
  {f4a08876-4b60-4c82-9e82-a78d8b5601c7}, !- Zone Return Air Node Name
  ,                                       !- Primary Daylighting Control Name
  ,                                       !- Fraction of Zone Controlled by Primary Daylighting Control
  ,                                       !- Secondary Daylighting Control Name
  ,                                       !- Fraction of Zone Controlled by Secondary Daylighting Control
  ,                                       !- Illuminance Map Name
  ,                                       !- Group Rendering Name
  {51e99c53-fec3-4e83-9e6c-19cc3b93afbe}, !- Thermostat Name
  No;                                     !- Use Ideal Air Loads

OS:Node,
  {bdeb1c26-3ce5-4170-aad8-6a45577664d2}, !- Handle
  Node 1,                                 !- Name
  {1f25aba6-d419-4072-9789-b59f22123db3}, !- Inlet Port
  ;                                       !- Outlet Port

OS:Connection,
  {1f25aba6-d419-4072-9789-b59f22123db3}, !- Handle
  {985ed8c6-2998-43dd-8985-0eec69173b0e}, !- Name
  {df53a32a-1296-4d0e-b6b2-af76bb889d77}, !- Source Object
  11,                                     !- Outlet Port
  {bdeb1c26-3ce5-4170-aad8-6a45577664d2}, !- Target Object
  2;                                      !- Inlet Port

OS:PortList,
  {752569dd-5eb0-47a9-bf6d-47a66d1288cc}, !- Handle
  {6aad076f-8a23-41ff-8d8e-66986e6b962f}, !- Name
  {df53a32a-1296-4d0e-b6b2-af76bb889d77}, !- HVAC Component
  {38c141b4-4124-4b11-9794-d550606f864c}; !- Port 1

OS:PortList,
  {3924f938-09b2-4986-bc1e-9d7c7ca2030e}, !- Handle
  {5c411f62-34ab-45ba-ac18-9ea18070fdec}, !- Name
  {df53a32a-1296-4d0e-b6b2-af76bb889d77}; !- HVAC Component

OS:Sizing:Zone,
  {a36f36b7-4c0d-44b3-ab86-59005dc7921f}, !- Handle
  {df53a32a-1296-4d0e-b6b2-af76bb889d77}, !- Zone or ZoneList Name
  SupplyAirTemperature,                   !- Zone Cooling Design Supply Air Temperature Input Method
  14,                                     !- Zone Cooling Design Supply Air Temperature {C}
  11.11,                                  !- Zone Cooling Design Supply Air Temperature Difference {deltaC}
  SupplyAirTemperature,                   !- Zone Heating Design Supply Air Temperature Input Method
  40,                                     !- Zone Heating Design Supply Air Temperature {C}
  11.11,                                  !- Zone Heating Design Supply Air Temperature Difference {deltaC}
  0.0085,                                 !- Zone Cooling Design Supply Air Humidity Ratio {kg-H2O/kg-air}
  0.008,                                  !- Zone Heating Design Supply Air Humidity Ratio {kg-H2O/kg-air}
  ,                                       !- Zone Heating Sizing Factor
  ,                                       !- Zone Cooling Sizing Factor
  DesignDay,                              !- Cooling Design Air Flow Method
  ,                                       !- Cooling Design Air Flow Rate {m3/s}
  ,                                       !- Cooling Minimum Air Flow per Zone Floor Area {m3/s-m2}
  ,                                       !- Cooling Minimum Air Flow {m3/s}
  ,                                       !- Cooling Minimum Air Flow Fraction
  DesignDay,                              !- Heating Design Air Flow Method
  ,                                       !- Heating Design Air Flow Rate {m3/s}
  ,                                       !- Heating Maximum Air Flow per Zone Floor Area {m3/s-m2}
  ,                                       !- Heating Maximum Air Flow {m3/s}
  ,                                       !- Heating Maximum Air Flow Fraction
  ,                                       !- Design Zone Air Distribution Effectiveness in Cooling Mode
  ,                                       !- Design Zone Air Distribution Effectiveness in Heating Mode
  No,                                     !- Account for Dedicated Outdoor Air System
  NeutralSupplyAir,                       !- Dedicated Outdoor Air System Control Strategy
  autosize,                               !- Dedicated Outdoor Air Low Setpoint Temperature for Design {C}
  autosize;                               !- Dedicated Outdoor Air High Setpoint Temperature for Design {C}

OS:ZoneHVAC:EquipmentList,
  {6bbcfeaa-2ec7-4eef-9d31-c8140a2d7a67}, !- Handle
  Zone HVAC Equipment List 1,             !- Name
  {df53a32a-1296-4d0e-b6b2-af76bb889d77}, !- Thermal Zone
  {88a3cd4d-fd90-4efc-81eb-42cadbfec14e}, !- Zone Equipment 1
  1,                                      !- Zone Equipment Cooling Sequence 1
  1;                                      !- Zone Equipment Heating or No-Load Sequence 1

OS:Space,
  {d66534e3-5995-4130-bf34-053fb0f58e63}, !- Handle
  living space,                           !- Name
  {e6af3da3-416d-4af7-8894-6e4448a8e936}, !- Space Type Name
  ,                                       !- Default Construction Set Name
  ,                                       !- Default Schedule Set Name
  ,                                       !- Direction of Relative North {deg}
  ,                                       !- X Origin {m}
  ,                                       !- Y Origin {m}
  ,                                       !- Z Origin {m}
  ,                                       !- Building Story Name
  {df53a32a-1296-4d0e-b6b2-af76bb889d77}, !- Thermal Zone Name
  ,                                       !- Part of Total Floor Area
  ,                                       !- Design Specification Outdoor Air Object Name
  {5e9b430f-ed4b-4501-882f-5ab81570d16b}; !- Building Unit Name

OS:Surface,
  {ec7fefd9-8893-4a42-810a-adf520fd04a2}, !- Handle
  Surface 1,                              !- Name
  Floor,                                  !- Surface Type
  ,                                       !- Construction Name
  {d66534e3-5995-4130-bf34-053fb0f58e63}, !- Space Name
  Foundation,                             !- Outside Boundary Condition
  ,                                       !- Outside Boundary Condition Object
  NoSun,                                  !- Sun Exposure
  NoWind,                                 !- Wind Exposure
  ,                                       !- View Factor to Ground
  ,                                       !- Number of Vertices
  0, -12.9315688143396, 0,                !- X,Y,Z Vertex 1 {m}
  0, 0, 0,                                !- X,Y,Z Vertex 2 {m}
  6.46578440716979, 0, 0,                 !- X,Y,Z Vertex 3 {m}
  6.46578440716979, -12.9315688143396, 0; !- X,Y,Z Vertex 4 {m}

OS:Surface,
  {f6a4ed33-4fe8-4cf2-a63f-12ebc21399b9}, !- Handle
  Surface 2,                              !- Name
  Wall,                                   !- Surface Type
  ,                                       !- Construction Name
  {d66534e3-5995-4130-bf34-053fb0f58e63}, !- Space Name
  Outdoors,                               !- Outside Boundary Condition
  ,                                       !- Outside Boundary Condition Object
  SunExposed,                             !- Sun Exposure
  WindExposed,                            !- Wind Exposure
  ,                                       !- View Factor to Ground
  ,                                       !- Number of Vertices
  0, 0, 2.4384,                           !- X,Y,Z Vertex 1 {m}
  0, 0, 0,                                !- X,Y,Z Vertex 2 {m}
  0, -12.9315688143396, 0,                !- X,Y,Z Vertex 3 {m}
  0, -12.9315688143396, 2.4384;           !- X,Y,Z Vertex 4 {m}

OS:Surface,
  {fc0b8a79-4e4c-4149-8ce0-31d127957593}, !- Handle
  Surface 3,                              !- Name
  Wall,                                   !- Surface Type
  ,                                       !- Construction Name
  {d66534e3-5995-4130-bf34-053fb0f58e63}, !- Space Name
  Outdoors,                               !- Outside Boundary Condition
  ,                                       !- Outside Boundary Condition Object
  SunExposed,                             !- Sun Exposure
  WindExposed,                            !- Wind Exposure
  ,                                       !- View Factor to Ground
  ,                                       !- Number of Vertices
  6.46578440716979, 0, 2.4384,            !- X,Y,Z Vertex 1 {m}
  6.46578440716979, 0, 0,                 !- X,Y,Z Vertex 2 {m}
  0, 0, 0,                                !- X,Y,Z Vertex 3 {m}
  0, 0, 2.4384;                           !- X,Y,Z Vertex 4 {m}

OS:Surface,
  {34b0d651-b95b-4cd5-af9e-e70b4be6c485}, !- Handle
  Surface 4,                              !- Name
  Wall,                                   !- Surface Type
  ,                                       !- Construction Name
  {d66534e3-5995-4130-bf34-053fb0f58e63}, !- Space Name
  Surface,                                !- Outside Boundary Condition
  {547d9746-ce6f-41a5-a577-6e0a7dcb2200}, !- Outside Boundary Condition Object
  NoSun,                                  !- Sun Exposure
  NoWind,                                 !- Wind Exposure
  ,                                       !- View Factor to Ground
  ,                                       !- Number of Vertices
  6.46578440716979, -12.9315688143396, 2.4384, !- X,Y,Z Vertex 1 {m}
  6.46578440716979, -12.9315688143396, 0, !- X,Y,Z Vertex 2 {m}
  6.46578440716979, 0, 0,                 !- X,Y,Z Vertex 3 {m}
  6.46578440716979, 0, 2.4384;            !- X,Y,Z Vertex 4 {m}

OS:Surface,
  {b9f77494-ca1a-4624-86e8-a5edbb1a18a8}, !- Handle
  Surface 5,                              !- Name
  Wall,                                   !- Surface Type
  ,                                       !- Construction Name
  {d66534e3-5995-4130-bf34-053fb0f58e63}, !- Space Name
  Outdoors,                               !- Outside Boundary Condition
  ,                                       !- Outside Boundary Condition Object
  SunExposed,                             !- Sun Exposure
  WindExposed,                            !- Wind Exposure
  ,                                       !- View Factor to Ground
  ,                                       !- Number of Vertices
  0, -12.9315688143396, 2.4384,           !- X,Y,Z Vertex 1 {m}
  0, -12.9315688143396, 0,                !- X,Y,Z Vertex 2 {m}
  6.46578440716979, -12.9315688143396, 0, !- X,Y,Z Vertex 3 {m}
  6.46578440716979, -12.9315688143396, 2.4384; !- X,Y,Z Vertex 4 {m}

OS:Surface,
  {45e024bf-0e59-484c-8c5d-4b84366d2a99}, !- Handle
  Surface 6,                              !- Name
  RoofCeiling,                            !- Surface Type
  ,                                       !- Construction Name
  {d66534e3-5995-4130-bf34-053fb0f58e63}, !- Space Name
  Surface,                                !- Outside Boundary Condition
  {540e8f8e-12ef-446d-a110-dd3496ed762a}, !- Outside Boundary Condition Object
  NoSun,                                  !- Sun Exposure
  NoWind,                                 !- Wind Exposure
  ,                                       !- View Factor to Ground
  ,                                       !- Number of Vertices
  6.46578440716979, -12.9315688143396, 2.4384, !- X,Y,Z Vertex 1 {m}
  6.46578440716979, 0, 2.4384,            !- X,Y,Z Vertex 2 {m}
  0, 0, 2.4384,                           !- X,Y,Z Vertex 3 {m}
  0, -12.9315688143396, 2.4384;           !- X,Y,Z Vertex 4 {m}

OS:SpaceType,
  {e6af3da3-416d-4af7-8894-6e4448a8e936}, !- Handle
  Space Type 1,                           !- Name
  ,                                       !- Default Construction Set Name
  ,                                       !- Default Schedule Set Name
  ,                                       !- Group Rendering Name
  ,                                       !- Design Specification Outdoor Air Object Name
  ,                                       !- Standards Building Type
  living;                                 !- Standards Space Type

OS:ThermalZone,
  {b91bab41-2e1e-43a1-9c6c-384368effde7}, !- Handle
  living zone|unit 2,                     !- Name
  ,                                       !- Multiplier
  ,                                       !- Ceiling Height {m}
  ,                                       !- Volume {m3}
  ,                                       !- Floor Area {m2}
  ,                                       !- Zone Inside Convection Algorithm
  ,                                       !- Zone Outside Convection Algorithm
  ,                                       !- Zone Conditioning Equipment List Name
  {95a13b42-e8c7-4ac4-a5f8-ac13dfb100c6}, !- Zone Air Inlet Port List
  {7ef12ee7-e0da-4db7-b8ab-028ba57550a5}, !- Zone Air Exhaust Port List
  {f9fbf0d2-9464-4bce-8a2f-035cd88d491a}, !- Zone Air Node Name
  {f58ad447-f693-4608-8c66-673d78927081}, !- Zone Return Air Node Name
  ,                                       !- Primary Daylighting Control Name
  ,                                       !- Fraction of Zone Controlled by Primary Daylighting Control
  ,                                       !- Secondary Daylighting Control Name
  ,                                       !- Fraction of Zone Controlled by Secondary Daylighting Control
  ,                                       !- Illuminance Map Name
  ,                                       !- Group Rendering Name
  {5126f50d-7b0d-4485-8c38-0360602a35d4}, !- Thermostat Name
  No;                                     !- Use Ideal Air Loads

OS:Node,
  {00dd4081-d385-48ba-a7a2-13b77e33081d}, !- Handle
  Node 2,                                 !- Name
  {f9fbf0d2-9464-4bce-8a2f-035cd88d491a}, !- Inlet Port
  ;                                       !- Outlet Port

OS:Connection,
  {f9fbf0d2-9464-4bce-8a2f-035cd88d491a}, !- Handle
  {8f3c16dd-f80e-4353-95d6-7fd0b10dc5e2}, !- Name
  {b91bab41-2e1e-43a1-9c6c-384368effde7}, !- Source Object
  11,                                     !- Outlet Port
  {00dd4081-d385-48ba-a7a2-13b77e33081d}, !- Target Object
  2;                                      !- Inlet Port

OS:PortList,
  {95a13b42-e8c7-4ac4-a5f8-ac13dfb100c6}, !- Handle
  {8b0cb80b-2e5b-4cef-94ed-b9175fe9c64d}, !- Name
  {b91bab41-2e1e-43a1-9c6c-384368effde7}, !- HVAC Component
  {eb973e01-9b52-4d31-acb6-b71ea3063c3a}; !- Port 1

OS:PortList,
  {7ef12ee7-e0da-4db7-b8ab-028ba57550a5}, !- Handle
  {a6bf5de6-8ace-41a7-b3bd-65c0a1c71a70}, !- Name
  {b91bab41-2e1e-43a1-9c6c-384368effde7}; !- HVAC Component

OS:Sizing:Zone,
  {3d06a4cc-2771-415c-a579-19f2481a46f5}, !- Handle
  {b91bab41-2e1e-43a1-9c6c-384368effde7}, !- Zone or ZoneList Name
  SupplyAirTemperature,                   !- Zone Cooling Design Supply Air Temperature Input Method
  14,                                     !- Zone Cooling Design Supply Air Temperature {C}
  11.11,                                  !- Zone Cooling Design Supply Air Temperature Difference {deltaC}
  SupplyAirTemperature,                   !- Zone Heating Design Supply Air Temperature Input Method
  40,                                     !- Zone Heating Design Supply Air Temperature {C}
  11.11,                                  !- Zone Heating Design Supply Air Temperature Difference {deltaC}
  0.0085,                                 !- Zone Cooling Design Supply Air Humidity Ratio {kg-H2O/kg-air}
  0.008,                                  !- Zone Heating Design Supply Air Humidity Ratio {kg-H2O/kg-air}
  ,                                       !- Zone Heating Sizing Factor
  ,                                       !- Zone Cooling Sizing Factor
  DesignDay,                              !- Cooling Design Air Flow Method
  ,                                       !- Cooling Design Air Flow Rate {m3/s}
  ,                                       !- Cooling Minimum Air Flow per Zone Floor Area {m3/s-m2}
  ,                                       !- Cooling Minimum Air Flow {m3/s}
  ,                                       !- Cooling Minimum Air Flow Fraction
  DesignDay,                              !- Heating Design Air Flow Method
  ,                                       !- Heating Design Air Flow Rate {m3/s}
  ,                                       !- Heating Maximum Air Flow per Zone Floor Area {m3/s-m2}
  ,                                       !- Heating Maximum Air Flow {m3/s}
  ,                                       !- Heating Maximum Air Flow Fraction
  ,                                       !- Design Zone Air Distribution Effectiveness in Cooling Mode
  ,                                       !- Design Zone Air Distribution Effectiveness in Heating Mode
  No,                                     !- Account for Dedicated Outdoor Air System
  NeutralSupplyAir,                       !- Dedicated Outdoor Air System Control Strategy
  autosize,                               !- Dedicated Outdoor Air Low Setpoint Temperature for Design {C}
  autosize;                               !- Dedicated Outdoor Air High Setpoint Temperature for Design {C}

OS:ZoneHVAC:EquipmentList,
  {d4e58533-ed4f-42f9-8034-79b412696e68}, !- Handle
  Zone HVAC Equipment List 2,             !- Name
  {b91bab41-2e1e-43a1-9c6c-384368effde7}, !- Thermal Zone
  {f4d8b475-1cda-44eb-af82-779da1718ff3}, !- Zone Equipment 1
  1,                                      !- Zone Equipment Cooling Sequence 1
  1;                                      !- Zone Equipment Heating or No-Load Sequence 1

OS:Space,
  {87de64ff-fcbf-4243-9cff-b20ed631b107}, !- Handle
  living space|unit 2|story 1,            !- Name
  {e6af3da3-416d-4af7-8894-6e4448a8e936}, !- Space Type Name
  ,                                       !- Default Construction Set Name
  ,                                       !- Default Schedule Set Name
  -0,                                     !- Direction of Relative North {deg}
  0,                                      !- X Origin {m}
  0,                                      !- Y Origin {m}
  0,                                      !- Z Origin {m}
  ,                                       !- Building Story Name
  {b91bab41-2e1e-43a1-9c6c-384368effde7}, !- Thermal Zone Name
  ,                                       !- Part of Total Floor Area
  ,                                       !- Design Specification Outdoor Air Object Name
  {3739dec8-03ea-41c2-aae0-f8cebfad1861}; !- Building Unit Name

OS:Surface,
  {547d9746-ce6f-41a5-a577-6e0a7dcb2200}, !- Handle
  Surface 12,                             !- Name
  Wall,                                   !- Surface Type
  ,                                       !- Construction Name
  {87de64ff-fcbf-4243-9cff-b20ed631b107}, !- Space Name
  Surface,                                !- Outside Boundary Condition
  {34b0d651-b95b-4cd5-af9e-e70b4be6c485}, !- Outside Boundary Condition Object
  NoSun,                                  !- Sun Exposure
  NoWind,                                 !- Wind Exposure
  ,                                       !- View Factor to Ground
  ,                                       !- Number of Vertices
  6.46578440716979, 0, 2.4384,            !- X,Y,Z Vertex 1 {m}
  6.46578440716979, 0, 0,                 !- X,Y,Z Vertex 2 {m}
  6.46578440716979, -12.9315688143396, 0, !- X,Y,Z Vertex 3 {m}
  6.46578440716979, -12.9315688143396, 2.4384; !- X,Y,Z Vertex 4 {m}

OS:Surface,
  {d4462b54-2b51-42a1-8320-a135f5db5360}, !- Handle
  Surface 13,                             !- Name
  Wall,                                   !- Surface Type
  ,                                       !- Construction Name
  {87de64ff-fcbf-4243-9cff-b20ed631b107}, !- Space Name
  Outdoors,                               !- Outside Boundary Condition
  ,                                       !- Outside Boundary Condition Object
  SunExposed,                             !- Sun Exposure
  WindExposed,                            !- Wind Exposure
  ,                                       !- View Factor to Ground
  ,                                       !- Number of Vertices
  6.46578440716979, -12.9315688143396, 2.4384, !- X,Y,Z Vertex 1 {m}
  6.46578440716979, -12.9315688143396, 0, !- X,Y,Z Vertex 2 {m}
  12.9315688143396, -12.9315688143396, 0, !- X,Y,Z Vertex 3 {m}
  12.9315688143396, -12.9315688143396, 2.4384; !- X,Y,Z Vertex 4 {m}

OS:Surface,
  {52ae18e5-51c3-442d-992b-c6b7af75e9e3}, !- Handle
  Surface 14,                             !- Name
  Floor,                                  !- Surface Type
  ,                                       !- Construction Name
  {87de64ff-fcbf-4243-9cff-b20ed631b107}, !- Space Name
  Foundation,                             !- Outside Boundary Condition
  ,                                       !- Outside Boundary Condition Object
  NoSun,                                  !- Sun Exposure
  NoWind,                                 !- Wind Exposure
  ,                                       !- View Factor to Ground
  ,                                       !- Number of Vertices
  6.46578440716979, -12.9315688143396, 0, !- X,Y,Z Vertex 1 {m}
  6.46578440716979, 0, 0,                 !- X,Y,Z Vertex 2 {m}
  12.9315688143396, 0, 0,                 !- X,Y,Z Vertex 3 {m}
  12.9315688143396, -12.9315688143396, 0; !- X,Y,Z Vertex 4 {m}

OS:Surface,
  {1c69fa4b-4231-44f9-864d-81567e35b1e8}, !- Handle
  Surface 15,                             !- Name
  RoofCeiling,                            !- Surface Type
  ,                                       !- Construction Name
  {87de64ff-fcbf-4243-9cff-b20ed631b107}, !- Space Name
  Surface,                                !- Outside Boundary Condition
  {ebee9bbd-bd73-404a-b945-7fd131e2cffa}, !- Outside Boundary Condition Object
  NoSun,                                  !- Sun Exposure
  NoWind,                                 !- Wind Exposure
  ,                                       !- View Factor to Ground
  ,                                       !- Number of Vertices
  12.9315688143396, -12.9315688143396, 2.4384, !- X,Y,Z Vertex 1 {m}
  12.9315688143396, 0, 2.4384,            !- X,Y,Z Vertex 2 {m}
  6.46578440716979, 0, 2.4384,            !- X,Y,Z Vertex 3 {m}
  6.46578440716979, -12.9315688143396, 2.4384; !- X,Y,Z Vertex 4 {m}

OS:Surface,
  {70044436-be07-4ea8-8e70-eadc204cfb55}, !- Handle
  Surface 16,                             !- Name
  Wall,                                   !- Surface Type
  ,                                       !- Construction Name
  {87de64ff-fcbf-4243-9cff-b20ed631b107}, !- Space Name
  Outdoors,                               !- Outside Boundary Condition
  ,                                       !- Outside Boundary Condition Object
  SunExposed,                             !- Sun Exposure
  WindExposed,                            !- Wind Exposure
  ,                                       !- View Factor to Ground
  ,                                       !- Number of Vertices
  12.9315688143396, 0, 2.4384,            !- X,Y,Z Vertex 1 {m}
  12.9315688143396, 0, 0,                 !- X,Y,Z Vertex 2 {m}
  6.46578440716979, 0, 0,                 !- X,Y,Z Vertex 3 {m}
  6.46578440716979, 0, 2.4384;            !- X,Y,Z Vertex 4 {m}

OS:Surface,
  {f7bab77a-1358-485c-9b7c-393bf6e2093a}, !- Handle
  Surface 17,                             !- Name
  Wall,                                   !- Surface Type
  ,                                       !- Construction Name
  {87de64ff-fcbf-4243-9cff-b20ed631b107}, !- Space Name
  Surface,                                !- Outside Boundary Condition
  {b2fa4b7a-ea01-4ffd-b8d2-a35fb35a55bb}, !- Outside Boundary Condition Object
  NoSun,                                  !- Sun Exposure
  NoWind,                                 !- Wind Exposure
  ,                                       !- View Factor to Ground
  ,                                       !- Number of Vertices
  12.9315688143396, -12.9315688143396, 2.4384, !- X,Y,Z Vertex 1 {m}
  12.9315688143396, -12.9315688143396, 0, !- X,Y,Z Vertex 2 {m}
  12.9315688143396, 0, 0,                 !- X,Y,Z Vertex 3 {m}
  12.9315688143396, 0, 2.4384;            !- X,Y,Z Vertex 4 {m}

OS:ThermalZone,
  {19e46ce2-b744-44ef-9915-e8e8505e91de}, !- Handle
  living zone|unit 3,                     !- Name
  ,                                       !- Multiplier
  ,                                       !- Ceiling Height {m}
  ,                                       !- Volume {m3}
  ,                                       !- Floor Area {m2}
  ,                                       !- Zone Inside Convection Algorithm
  ,                                       !- Zone Outside Convection Algorithm
  ,                                       !- Zone Conditioning Equipment List Name
  {a60368d6-867c-4ae9-9d50-f7dc035fa32c}, !- Zone Air Inlet Port List
  {769eb43c-c77d-49d1-9ff2-e21839694ba4}, !- Zone Air Exhaust Port List
  {bddc9111-b76f-4252-bb07-d7a2fc151797}, !- Zone Air Node Name
  {0cba927e-77d2-4f4c-95b7-370113568e46}, !- Zone Return Air Node Name
  ,                                       !- Primary Daylighting Control Name