!- NOTE: Auto-generated from /test/osw_files/SFA_4units_1story_SL_UA_3Beds_2Baths_Denver_UnitHeater.osw

OS:Version,
  {2e179504-57f4-4740-9a43-9c5d96cdbc3a}, !- Handle
  2.5.1;                                  !- Version Identifier

OS:Building,
  {3857ed0f-6dae-496a-b86f-bd1313662611}, !- Handle
  Building 1,                             !- Name
  ,                                       !- Building Sector Type
  0,                                      !- North Axis {deg}
  ,                                       !- Nominal Floor to Floor Height {m}
  ,                                       !- Space Type Name
  ,                                       !- Default Construction Set Name
  ,                                       !- Default Schedule Set Name
  1,                                      !- Standards Number of Stories
  1,                                      !- Standards Number of Above Ground Stories
  singlefamilyattached,                   !- Standards Building Type
  4;                                      !- Standards Number of Living Units

OS:Facility,
  {a9e76c85-22fe-4836-a984-3dcd7328caac}; !- Handle

OS:Site,
  {8ce68afc-ba3c-4639-8197-3eb81cc21951}, !- Handle
  Denver Intl Ap_CO_USA,                  !- Name
  39.83,                                  !- Latitude {deg}
  -104.65,                                !- Longitude {deg}
  -7,                                     !- Time Zone {hr}
  1650,                                   !- Elevation {m}
  ;                                       !- Terrain

OS:SimulationControl,
  {0577093e-09a7-4eaa-8bd9-53740969b3d4}, !- Handle
  ,                                       !- Do Zone Sizing Calculation
  ,                                       !- Do System Sizing Calculation
  ,                                       !- Do Plant Sizing Calculation
  No;                                     !- Run Simulation for Sizing Periods

OS:Sizing:Parameters,
  {3dbc8622-53e7-4100-b95f-4ec67c1caef9}, !- Handle
  1.25,                                   !- Heating Sizing Factor
  1.15;                                   !- Cooling Sizing Factor

OS:Timestep,
  {fafecf19-d8af-40a5-95cf-60b425059729}, !- Handle
  6;                                      !- Number of Timesteps per Hour

OS:ShadowCalculation,
  {bbfd7201-6795-47dd-aa1d-c5fa615ef543}, !- Handle
  20,                                     !- Calculation Frequency
  200;                                    !- Maximum Figures in Shadow Overlap Calculations

OS:HeatBalanceAlgorithm,
  {63c7d0a0-4f79-4d17-b686-aad887f1703a}, !- Handle
  ConductionTransferFunction,             !- Algorithm
  200;                                    !- Surface Temperature Upper Limit {C}

OS:RunPeriod,
  {7346fe95-e879-40b2-8d47-8df4754dfaf8}, !- Handle
  Run Period 1,                           !- Name
  1,                                      !- Begin Month
  1,                                      !- Begin Day of Month
  12,                                     !- End Month
  31,                                     !- End Day of Month
  ,                                       !- Use Weather File Holidays and Special Days
  ,                                       !- Use Weather File Daylight Saving Period
  ,                                       !- Apply Weekend Holiday Rule
  ,                                       !- Use Weather File Rain Indicators
  ,                                       !- Use Weather File Snow Indicators
  ;                                       !- Number of Times Runperiod to be Repeated

OS:LifeCycleCost:Parameters,
  {578e41b0-403d-4d54-8048-2f99f8a84707}, !- Handle
  ,                                       !- Analysis Type
  ,                                       !- Discounting Convention
  ,                                       !- Inflation Approach
  ,                                       !- Real Discount Rate
  ,                                       !- Nominal Discount Rate
  ,                                       !- Inflation
  ,                                       !- Base Date Month
  ,                                       !- Base Date Year
  ,                                       !- Service Date Month
  ,                                       !- Service Date Year
  ;                                       !- Length of Study Period in Years

OS:ThermalZone,
  {fbd5eacd-3b4a-4ccd-9764-addc7d4fcd21}, !- Handle
  living zone,                            !- Name
  ,                                       !- Multiplier
  ,                                       !- Ceiling Height {m}
  ,                                       !- Volume {m3}
  ,                                       !- Floor Area {m2}
  ,                                       !- Zone Inside Convection Algorithm
  ,                                       !- Zone Outside Convection Algorithm
  ,                                       !- Zone Conditioning Equipment List Name
  {3b3e5a6e-0ca9-4cfd-848c-01ae0cf9ab4f}, !- Zone Air Inlet Port List
  {01bfc76f-057e-4090-879a-08d202c89383}, !- Zone Air Exhaust Port List
  {5c77299f-5a0e-47ce-a1fe-13a8c152a9e9}, !- Zone Air Node Name
  ,                                       !- Zone Return Air Node Name
  ,                                       !- Primary Daylighting Control Name
  ,                                       !- Fraction of Zone Controlled by Primary Daylighting Control
  ,                                       !- Secondary Daylighting Control Name
  ,                                       !- Fraction of Zone Controlled by Secondary Daylighting Control
  ,                                       !- Illuminance Map Name
  ,                                       !- Group Rendering Name
  {6888ade9-2407-447b-b1f3-4e1218f64d02}, !- Thermostat Name
  No;                                     !- Use Ideal Air Loads

OS:Node,
  {2de2b34e-84d4-415f-b3fa-6e4e8d0429b3}, !- Handle
  Node 1,                                 !- Name
  {5c77299f-5a0e-47ce-a1fe-13a8c152a9e9}, !- Inlet Port
  ;                                       !- Outlet Port

OS:Connection,
  {5c77299f-5a0e-47ce-a1fe-13a8c152a9e9}, !- Handle
  {6f76ca23-b80b-42c7-ae3a-15d41ffaa603}, !- Name
  {fbd5eacd-3b4a-4ccd-9764-addc7d4fcd21}, !- Source Object
  11,                                     !- Outlet Port
  {2de2b34e-84d4-415f-b3fa-6e4e8d0429b3}, !- Target Object
  2;                                      !- Inlet Port

OS:PortList,
  {3b3e5a6e-0ca9-4cfd-848c-01ae0cf9ab4f}, !- Handle
  {9faa42fb-72fa-4fe6-9a10-b681db08a090}, !- Name
  {fbd5eacd-3b4a-4ccd-9764-addc7d4fcd21}, !- HVAC Component
  {7199808a-b9ef-4908-8222-8c16ed980458}; !- Port 1

OS:PortList,
  {01bfc76f-057e-4090-879a-08d202c89383}, !- Handle
  {9312c85c-09d2-43c3-8fc2-9968c568106c}, !- Name
  {fbd5eacd-3b4a-4ccd-9764-addc7d4fcd21}, !- HVAC Component
  {e1318f89-8ec3-4adb-8496-23a06aaca36b}; !- Port 1

OS:Sizing:Zone,
  {3ca6ec6c-b2cf-47c0-8492-aae0ebee60fc}, !- Handle
  {fbd5eacd-3b4a-4ccd-9764-addc7d4fcd21}, !- Zone or ZoneList Name
  SupplyAirTemperature,                   !- Zone Cooling Design Supply Air Temperature Input Method
  14,                                     !- Zone Cooling Design Supply Air Temperature {C}
  11.11,                                  !- Zone Cooling Design Supply Air Temperature Difference {deltaC}
  SupplyAirTemperature,                   !- Zone Heating Design Supply Air Temperature Input Method
  40,                                     !- Zone Heating Design Supply Air Temperature {C}
  11.11,                                  !- Zone Heating Design Supply Air Temperature Difference {deltaC}
  0.0085,                                 !- Zone Cooling Design Supply Air Humidity Ratio {kg-H2O/kg-air}
  0.008,                                  !- Zone Heating Design Supply Air Humidity Ratio {kg-H2O/kg-air}
  ,                                       !- Zone Heating Sizing Factor
  ,                                       !- Zone Cooling Sizing Factor
  DesignDay,                              !- Cooling Design Air Flow Method
  ,                                       !- Cooling Design Air Flow Rate {m3/s}
  ,                                       !- Cooling Minimum Air Flow per Zone Floor Area {m3/s-m2}
  ,                                       !- Cooling Minimum Air Flow {m3/s}
  ,                                       !- Cooling Minimum Air Flow Fraction
  DesignDay,                              !- Heating Design Air Flow Method
  ,                                       !- Heating Design Air Flow Rate {m3/s}
  ,                                       !- Heating Maximum Air Flow per Zone Floor Area {m3/s-m2}
  ,                                       !- Heating Maximum Air Flow {m3/s}
  ,                                       !- Heating Maximum Air Flow Fraction
  ,                                       !- Design Zone Air Distribution Effectiveness in Cooling Mode
  ,                                       !- Design Zone Air Distribution Effectiveness in Heating Mode
  No,                                     !- Account for Dedicated Outdoor Air System
  NeutralSupplyAir,                       !- Dedicated Outdoor Air System Control Strategy
  autosize,                               !- Dedicated Outdoor Air Low Setpoint Temperature for Design {C}
  autosize;                               !- Dedicated Outdoor Air High Setpoint Temperature for Design {C}

OS:ZoneHVAC:EquipmentList,
  {8301bd14-2a0a-4ce7-ad2d-d335a5ed1f61}, !- Handle
  Zone HVAC Equipment List 1,             !- Name
  {fbd5eacd-3b4a-4ccd-9764-addc7d4fcd21}, !- Thermal Zone
  {44e7150d-8d8a-4256-8cb6-7d866b7bffc9}, !- Zone Equipment 1
  1,                                      !- Zone Equipment Cooling Sequence 1
  1;                                      !- Zone Equipment Heating or No-Load Sequence 1

OS:Space,
  {517a0cdc-719c-4945-8aad-2f4aaf1a590a}, !- Handle
  living space,                           !- Name
  {7a68c39f-8696-4db9-a453-323cbc6815e4}, !- Space Type Name
  ,                                       !- Default Construction Set Name
  ,                                       !- Default Schedule Set Name
  ,                                       !- Direction of Relative North {deg}
  ,                                       !- X Origin {m}
  ,                                       !- Y Origin {m}
  ,                                       !- Z Origin {m}
  ,                                       !- Building Story Name
  {fbd5eacd-3b4a-4ccd-9764-addc7d4fcd21}, !- Thermal Zone Name
  ,                                       !- Part of Total Floor Area
  ,                                       !- Design Specification Outdoor Air Object Name
  {d36c725a-d017-4644-a73b-415e4a4b3077}; !- Building Unit Name

OS:Surface,
  {78aa99c5-86e2-4366-88d4-8eb280acebc1}, !- Handle
  Surface 1,                              !- Name
  Floor,                                  !- Surface Type
  ,                                       !- Construction Name
  {517a0cdc-719c-4945-8aad-2f4aaf1a590a}, !- Space Name
  Foundation,                             !- Outside Boundary Condition
  ,                                       !- Outside Boundary Condition Object
  NoSun,                                  !- Sun Exposure
  NoWind,                                 !- Wind Exposure
  ,                                       !- View Factor to Ground
  ,                                       !- Number of Vertices
  0, -12.9315688143396, 0,                !- X,Y,Z Vertex 1 {m}
  0, 0, 0,                                !- X,Y,Z Vertex 2 {m}
  6.46578440716979, 0, 0,                 !- X,Y,Z Vertex 3 {m}
  6.46578440716979, -12.9315688143396, 0; !- X,Y,Z Vertex 4 {m}

OS:Surface,
  {af49044a-dcec-4cdc-8c91-a4a72b95d1b6}, !- Handle
  Surface 2,                              !- Name
  Wall,                                   !- Surface Type
  ,                                       !- Construction Name
  {517a0cdc-719c-4945-8aad-2f4aaf1a590a}, !- Space Name
  Outdoors,                               !- Outside Boundary Condition
  ,                                       !- Outside Boundary Condition Object
  SunExposed,                             !- Sun Exposure
  WindExposed,                            !- Wind Exposure
  ,                                       !- View Factor to Ground
  ,                                       !- Number of Vertices
  0, 0, 2.4384,                           !- X,Y,Z Vertex 1 {m}
  0, 0, 0,                                !- X,Y,Z Vertex 2 {m}
  0, -12.9315688143396, 0,                !- X,Y,Z Vertex 3 {m}
  0, -12.9315688143396, 2.4384;           !- X,Y,Z Vertex 4 {m}

OS:Surface,
  {9b9724e2-2590-42a3-bfd4-5441727f9207}, !- Handle
  Surface 3,                              !- Name
  Wall,                                   !- Surface Type
  ,                                       !- Construction Name
  {517a0cdc-719c-4945-8aad-2f4aaf1a590a}, !- Space Name
  Outdoors,                               !- Outside Boundary Condition
  ,                                       !- Outside Boundary Condition Object
  SunExposed,                             !- Sun Exposure
  WindExposed,                            !- Wind Exposure
  ,                                       !- View Factor to Ground
  ,                                       !- Number of Vertices
  6.46578440716979, 0, 2.4384,            !- X,Y,Z Vertex 1 {m}
  6.46578440716979, 0, 0,                 !- X,Y,Z Vertex 2 {m}
  0, 0, 0,                                !- X,Y,Z Vertex 3 {m}
  0, 0, 2.4384;                           !- X,Y,Z Vertex 4 {m}

OS:Surface,
  {f3e9bfad-5e46-4ae2-816d-b0a0eceec7f3}, !- Handle
  Surface 4,                              !- Name
  Wall,                                   !- Surface Type
  ,                                       !- Construction Name
  {517a0cdc-719c-4945-8aad-2f4aaf1a590a}, !- Space Name
  Surface,                                !- Outside Boundary Condition
  {2e327fa4-2334-4d04-a37d-2c74a2851658}, !- Outside Boundary Condition Object
  NoSun,                                  !- Sun Exposure
  NoWind,                                 !- Wind Exposure
  ,                                       !- View Factor to Ground
  ,                                       !- Number of Vertices
  6.46578440716979, -12.9315688143396, 2.4384, !- X,Y,Z Vertex 1 {m}
  6.46578440716979, -12.9315688143396, 0, !- X,Y,Z Vertex 2 {m}
  6.46578440716979, 0, 0,                 !- X,Y,Z Vertex 3 {m}
  6.46578440716979, 0, 2.4384;            !- X,Y,Z Vertex 4 {m}

OS:Surface,
  {f8841b67-02dc-4e22-9ee3-3f970ed51f2c}, !- Handle
  Surface 5,                              !- Name
  Wall,                                   !- Surface Type
  ,                                       !- Construction Name
  {517a0cdc-719c-4945-8aad-2f4aaf1a590a}, !- Space Name
  Outdoors,                               !- Outside Boundary Condition
  ,                                       !- Outside Boundary Condition Object
  SunExposed,                             !- Sun Exposure
  WindExposed,                            !- Wind Exposure
  ,                                       !- View Factor to Ground
  ,                                       !- Number of Vertices
  0, -12.9315688143396, 2.4384,           !- X,Y,Z Vertex 1 {m}
  0, -12.9315688143396, 0,                !- X,Y,Z Vertex 2 {m}
  6.46578440716979, -12.9315688143396, 0, !- X,Y,Z Vertex 3 {m}
  6.46578440716979, -12.9315688143396, 2.4384; !- X,Y,Z Vertex 4 {m}

OS:Surface,
  {9c733d51-0059-440c-9bb5-dfe5553d0bec}, !- Handle
  Surface 6,                              !- Name
  RoofCeiling,                            !- Surface Type
  ,                                       !- Construction Name
  {517a0cdc-719c-4945-8aad-2f4aaf1a590a}, !- Space Name
  Surface,                                !- Outside Boundary Condition
  {f5671892-64c4-47e5-9dd1-b19ddd30d1ed}, !- Outside Boundary Condition Object
  NoSun,                                  !- Sun Exposure
  NoWind,                                 !- Wind Exposure
  ,                                       !- View Factor to Ground
  ,                                       !- Number of Vertices
  6.46578440716979, -12.9315688143396, 2.4384, !- X,Y,Z Vertex 1 {m}
  6.46578440716979, 0, 2.4384,            !- X,Y,Z Vertex 2 {m}
  0, 0, 2.4384,                           !- X,Y,Z Vertex 3 {m}
  0, -12.9315688143396, 2.4384;           !- X,Y,Z Vertex 4 {m}

OS:SpaceType,
  {7a68c39f-8696-4db9-a453-323cbc6815e4}, !- Handle
  Space Type 1,                           !- Name
  ,                                       !- Default Construction Set Name
  ,                                       !- Default Schedule Set Name
  ,                                       !- Group Rendering Name
  ,                                       !- Design Specification Outdoor Air Object Name
  ,                                       !- Standards Building Type
  living;                                 !- Standards Space Type

OS:ThermalZone,
  {0fd6cefe-3e03-4187-8923-a28fb71e0f61}, !- Handle
  living zone|unit 2,                     !- Name
  ,                                       !- Multiplier
  ,                                       !- Ceiling Height {m}
  ,                                       !- Volume {m3}
  ,                                       !- Floor Area {m2}
  ,                                       !- Zone Inside Convection Algorithm
  ,                                       !- Zone Outside Convection Algorithm
  ,                                       !- Zone Conditioning Equipment List Name
  {3ee9985b-e67d-4d64-8d2f-9359905d10c1}, !- Zone Air Inlet Port List
  {4b6fc2e6-b71c-469e-a701-9156bfbfc6dd}, !- Zone Air Exhaust Port List
  {bf20fd9c-aeac-4b4a-ac65-fd16278010c5}, !- Zone Air Node Name
  ,                                       !- Zone Return Air Node Name
  ,                                       !- Primary Daylighting Control Name
  ,                                       !- Fraction of Zone Controlled by Primary Daylighting Control
  ,                                       !- Secondary Daylighting Control Name
  ,                                       !- Fraction of Zone Controlled by Secondary Daylighting Control
  ,                                       !- Illuminance Map Name
  ,                                       !- Group Rendering Name
  {fb0527ef-ecd7-4f05-aba1-7051ab2c13df}, !- Thermostat Name
  No;                                     !- Use Ideal Air Loads

OS:Node,
  {133495ad-af25-40ba-86f0-f1be782aee7f}, !- Handle
  Node 2,                                 !- Name
  {bf20fd9c-aeac-4b4a-ac65-fd16278010c5}, !- Inlet Port
  ;                                       !- Outlet Port

OS:Connection,
  {bf20fd9c-aeac-4b4a-ac65-fd16278010c5}, !- Handle
  {83b1557f-0842-484f-add9-6d931a36cd63}, !- Name
  {0fd6cefe-3e03-4187-8923-a28fb71e0f61}, !- Source Object
  11,                                     !- Outlet Port
  {133495ad-af25-40ba-86f0-f1be782aee7f}, !- Target Object
  2;                                      !- Inlet Port

OS:PortList,
  {3ee9985b-e67d-4d64-8d2f-9359905d10c1}, !- Handle
  {ea387de3-8fa5-47d9-953c-8d4af5c22d34}, !- Name
  {0fd6cefe-3e03-4187-8923-a28fb71e0f61}, !- HVAC Component
  {50c1a4b9-9c8a-49cf-b4eb-18b9b4429aa4}; !- Port 1

OS:PortList,
  {4b6fc2e6-b71c-469e-a701-9156bfbfc6dd}, !- Handle
  {3625d7f2-fb86-4044-a7bd-aee6fb54c376}, !- Name
  {0fd6cefe-3e03-4187-8923-a28fb71e0f61}, !- HVAC Component
  {654f651b-bcbe-4fcb-8cc3-6c476dc9e44c}; !- Port 1

OS:Sizing:Zone,
  {e9d56b57-9d57-4601-9d96-45b28f8abf76}, !- Handle
  {0fd6cefe-3e03-4187-8923-a28fb71e0f61}, !- Zone or ZoneList Name
  SupplyAirTemperature,                   !- Zone Cooling Design Supply Air Temperature Input Method
  14,                                     !- Zone Cooling Design Supply Air Temperature {C}
  11.11,                                  !- Zone Cooling Design Supply Air Temperature Difference {deltaC}
  SupplyAirTemperature,                   !- Zone Heating Design Supply Air Temperature Input Method
  40,                                     !- Zone Heating Design Supply Air Temperature {C}
  11.11,                                  !- Zone Heating Design Supply Air Temperature Difference {deltaC}
  0.0085,                                 !- Zone Cooling Design Supply Air Humidity Ratio {kg-H2O/kg-air}
  0.008,                                  !- Zone Heating Design Supply Air Humidity Ratio {kg-H2O/kg-air}
  ,                                       !- Zone Heating Sizing Factor
  ,                                       !- Zone Cooling Sizing Factor
  DesignDay,                              !- Cooling Design Air Flow Method
  ,                                       !- Cooling Design Air Flow Rate {m3/s}
  ,                                       !- Cooling Minimum Air Flow per Zone Floor Area {m3/s-m2}
  ,                                       !- Cooling Minimum Air Flow {m3/s}
  ,                                       !- Cooling Minimum Air Flow Fraction
  DesignDay,                              !- Heating Design Air Flow Method
  ,                                       !- Heating Design Air Flow Rate {m3/s}
  ,                                       !- Heating Maximum Air Flow per Zone Floor Area {m3/s-m2}
  ,                                       !- Heating Maximum Air Flow {m3/s}
  ,                                       !- Heating Maximum Air Flow Fraction
  ,                                       !- Design Zone Air Distribution Effectiveness in Cooling Mode
  ,                                       !- Design Zone Air Distribution Effectiveness in Heating Mode
  No,                                     !- Account for Dedicated Outdoor Air System
  NeutralSupplyAir,                       !- Dedicated Outdoor Air System Control Strategy
  autosize,                               !- Dedicated Outdoor Air Low Setpoint Temperature for Design {C}
  autosize;                               !- Dedicated Outdoor Air High Setpoint Temperature for Design {C}

OS:ZoneHVAC:EquipmentList,
  {45fa97e0-e468-4825-9883-800b699f921e}, !- Handle
  Zone HVAC Equipment List 2,             !- Name
  {0fd6cefe-3e03-4187-8923-a28fb71e0f61}, !- Thermal Zone
  {128ffe71-a184-433b-88a8-426e0d740277}, !- Zone Equipment 1
  1,                                      !- Zone Equipment Cooling Sequence 1
  1;                                      !- Zone Equipment Heating or No-Load Sequence 1

OS:Space,
  {ac1effd9-ec39-4078-92d5-de539a14f42c}, !- Handle
  living space|unit 2|story 1,            !- Name
  {7a68c39f-8696-4db9-a453-323cbc6815e4}, !- Space Type Name
  ,                                       !- Default Construction Set Name
  ,                                       !- Default Schedule Set Name
  -0,                                     !- Direction of Relative North {deg}
  0,                                      !- X Origin {m}
  0,                                      !- Y Origin {m}
  0,                                      !- Z Origin {m}
  ,                                       !- Building Story Name
  {0fd6cefe-3e03-4187-8923-a28fb71e0f61}, !- Thermal Zone Name
  ,                                       !- Part of Total Floor Area
  ,                                       !- Design Specification Outdoor Air Object Name
  {8c3f5001-3330-42ec-abd2-5f0ba530136d}; !- Building Unit Name

OS:Surface,
  {316885ad-e563-4c76-8454-0b536a8cc649}, !- Handle
  Surface 12,                             !- Name
  Floor,                                  !- Surface Type
  ,                                       !- Construction Name
  {ac1effd9-ec39-4078-92d5-de539a14f42c}, !- Space Name
  Foundation,                             !- Outside Boundary Condition
  ,                                       !- Outside Boundary Condition Object
  NoSun,                                  !- Sun Exposure
  NoWind,                                 !- Wind Exposure
  ,                                       !- View Factor to Ground
  ,                                       !- Number of Vertices
  6.46578440716979, -12.9315688143396, 0, !- X,Y,Z Vertex 1 {m}
  6.46578440716979, 0, 0,                 !- X,Y,Z Vertex 2 {m}
  12.9315688143396, 0, 0,                 !- X,Y,Z Vertex 3 {m}
  12.9315688143396, -12.9315688143396, 0; !- X,Y,Z Vertex 4 {m}

OS:Surface,
  {32942a0e-970a-47df-b92b-d592ac9358e4}, !- Handle
  Surface 13,                             !- Name
  Wall,                                   !- Surface Type
  ,                                       !- Construction Name
  {ac1effd9-ec39-4078-92d5-de539a14f42c}, !- Space Name
  Outdoors,                               !- Outside Boundary Condition
  ,                                       !- Outside Boundary Condition Object
  SunExposed,                             !- Sun Exposure
  WindExposed,                            !- Wind Exposure
  ,                                       !- View Factor to Ground
  ,                                       !- Number of Vertices
  12.9315688143396, 0, 2.4384,            !- X,Y,Z Vertex 1 {m}
  12.9315688143396, 0, 0,                 !- X,Y,Z Vertex 2 {m}
  6.46578440716979, 0, 0,                 !- X,Y,Z Vertex 3 {m}
  6.46578440716979, 0, 2.4384;            !- X,Y,Z Vertex 4 {m}

OS:Surface,
  {57b081c9-2571-45d2-a2e0-baaf4269303d}, !- Handle
  Surface 14,                             !- Name
  Wall,                                   !- Surface Type
  ,                                       !- Construction Name
  {ac1effd9-ec39-4078-92d5-de539a14f42c}, !- Space Name
  Outdoors,                               !- Outside Boundary Condition
  ,                                       !- Outside Boundary Condition Object
  SunExposed,                             !- Sun Exposure
  WindExposed,                            !- Wind Exposure
  ,                                       !- View Factor to Ground
  ,                                       !- Number of Vertices
  6.46578440716979, -12.9315688143396, 2.4384, !- X,Y,Z Vertex 1 {m}
  6.46578440716979, -12.9315688143396, 0, !- X,Y,Z Vertex 2 {m}
  12.9315688143396, -12.9315688143396, 0, !- X,Y,Z Vertex 3 {m}
  12.9315688143396, -12.9315688143396, 2.4384; !- X,Y,Z Vertex 4 {m}

OS:Surface,
  {088ac0a0-f335-4c30-a516-636f0949c7cf}, !- Handle
  Surface 15,                             !- Name
  RoofCeiling,                            !- Surface Type
  ,                                       !- Construction Name
  {ac1effd9-ec39-4078-92d5-de539a14f42c}, !- Space Name
  Surface,                                !- Outside Boundary Condition
  {86fb332e-c8db-4de3-b57e-bbe3fdb20d55}, !- Outside Boundary Condition Object
  NoSun,                                  !- Sun Exposure
  NoWind,                                 !- Wind Exposure
  ,                                       !- View Factor to Ground
  ,                                       !- Number of Vertices
  12.9315688143396, -12.9315688143396, 2.4384, !- X,Y,Z Vertex 1 {m}
  12.9315688143396, 0, 2.4384,            !- X,Y,Z Vertex 2 {m}
  6.46578440716979, 0, 2.4384,            !- X,Y,Z Vertex 3 {m}
  6.46578440716979, -12.9315688143396, 2.4384; !- X,Y,Z Vertex 4 {m}

OS:Surface,
  {686f44fc-32b2-42c1-bd76-2185fe0c69db}, !- Handle
  Surface 16,                             !- Name
  Wall,                                   !- Surface Type
  ,                                       !- Construction Name
  {ac1effd9-ec39-4078-92d5-de539a14f42c}, !- Space Name
  Surface,                                !- Outside Boundary Condition
  {57d07008-f637-4a43-820d-724656797431}, !- Outside Boundary Condition Object
  NoSun,                                  !- Sun Exposure
  NoWind,                                 !- Wind Exposure
  ,                                       !- View Factor to Ground
  ,                                       !- Number of Vertices
  12.9315688143396, -12.9315688143396, 2.4384, !- X,Y,Z Vertex 1 {m}
  12.9315688143396, -12.9315688143396, 0, !- X,Y,Z Vertex 2 {m}
  12.9315688143396, 0, 0,                 !- X,Y,Z Vertex 3 {m}
  12.9315688143396, 0, 2.4384;            !- X,Y,Z Vertex 4 {m}

OS:Surface,
  {2e327fa4-2334-4d04-a37d-2c74a2851658}, !- Handle
  Surface 17,                             !- Name
  Wall,                                   !- Surface Type
  ,                                       !- Construction Name
  {ac1effd9-ec39-4078-92d5-de539a14f42c}, !- Space Name
  Surface,                                !- Outside Boundary Condition
  {f3e9bfad-5e46-4ae2-816d-b0a0eceec7f3}, !- Outside Boundary Condition Object
  NoSun,                                  !- Sun Exposure
  NoWind,                                 !- Wind Exposure
  ,                                       !- View Factor to Ground
  ,                                       !- Number of Vertices
  6.46578440716979, 0, 2.4384,            !- X,Y,Z Vertex 1 {m}
  6.46578440716979, 0, 0,                 !- X,Y,Z Vertex 2 {m}
  6.46578440716979, -12.9315688143396, 0, !- X,Y,Z Vertex 3 {m}
  6.46578440716979, -12.9315688143396, 2.4384; !- X,Y,Z Vertex 4 {m}

OS:ThermalZone,
  {f4ac428a-f576-4f36-8ee5-8286897d461c}, !- Handle
  living zone|unit 3,                     !- Name
  ,                                       !- Multiplier
  ,                                       !- Ceiling Height {m}
  ,                                       !- Volume {m3}
  ,                                       !- Floor Area {m2}
  ,                                       !- Zone Inside Convection Algorithm
  ,                                       !- Zone Outside Convection Algorithm
  ,                                       !- Zone Conditioning Equipment List Name
  {a6aa7fe9-f459-4349-93ad-c47b883c360c}, !- Zone Air Inlet Port List
  {e3419f3e-575c-46e6-bbcd-ed03725dcc98}, !- Zone Air Exhaust Port List
  {89968ed3-8fbf-4a62-b849-123ab99da31c}, !- Zone Air Node Name
  ,                                       !- Zone Return Air Node Name