!- NOTE: Auto-generated from /test/osw_files/SFA_4units_1story_FB_UA_3Beds_2Baths_Denver_WHTank_HWFixtures.osw

OS:Version,
  {c93e3f40-8447-427e-9648-bf0d1592f5ee}, !- Handle
  2.6.2;                                  !- Version Identifier

OS:Building,
  {2d0d1c47-2129-4ebb-a930-2b52904049e5}, !- Handle
  Building 1,                             !- Name
  ,                                       !- Building Sector Type
  0,                                      !- North Axis {deg}
  ,                                       !- Nominal Floor to Floor Height {m}
  ,                                       !- Space Type Name
  ,                                       !- Default Construction Set Name
  ,                                       !- Default Schedule Set Name
  2,                                      !- Standards Number of Stories
  1,                                      !- Standards Number of Above Ground Stories
  singlefamilyattached,                   !- Standards Building Type
  4;                                      !- Standards Number of Living Units

OS:Facility,
  {8f4058e6-dcd7-4b66-8344-c325d28faf54}; !- Handle

OS:Site,
  {33410171-ed6b-4a14-bae0-fdb29a29eaf3}, !- Handle
  Denver Intl Ap_CO_USA,                  !- Name
  39.83,                                  !- Latitude {deg}
  -104.65,                                !- Longitude {deg}
  -7,                                     !- Time Zone {hr}
  1650,                                   !- Elevation {m}
  ;                                       !- Terrain

OS:SimulationControl,
  {85332822-6fa6-400f-abec-5dae39d77589}, !- Handle
  ,                                       !- Do Zone Sizing Calculation
  ,                                       !- Do System Sizing Calculation
  ,                                       !- Do Plant Sizing Calculation
  No;                                     !- Run Simulation for Sizing Periods

OS:Sizing:Parameters,
  {1231913c-d09f-4236-8c23-4dc82a4419c6}, !- Handle
  1.25,                                   !- Heating Sizing Factor
  1.15;                                   !- Cooling Sizing Factor

OS:Timestep,
  {750316a1-5577-4016-b0cc-db8c0f74c707}, !- Handle
  6;                                      !- Number of Timesteps per Hour

OS:ShadowCalculation,
  {6e0d818b-c4ae-46fb-ae6c-2275df10bf37}, !- Handle
  20,                                     !- Calculation Frequency
  200;                                    !- Maximum Figures in Shadow Overlap Calculations

OS:HeatBalanceAlgorithm,
  {921fbb7d-2d7b-4363-a894-5f55023ee6c9}, !- Handle
  ConductionTransferFunction,             !- Algorithm
  200;                                    !- Surface Temperature Upper Limit {C}

OS:RunPeriod,
  {4caca79f-a4d6-4063-9aa5-5d95fbb78a52}, !- Handle
  Run Period 1,                           !- Name
  1,                                      !- Begin Month
  1,                                      !- Begin Day of Month
  12,                                     !- End Month
  31,                                     !- End Day of Month
  ,                                       !- Use Weather File Holidays and Special Days
  ,                                       !- Use Weather File Daylight Saving Period
  ,                                       !- Apply Weekend Holiday Rule
  ,                                       !- Use Weather File Rain Indicators
  ,                                       !- Use Weather File Snow Indicators
  ;                                       !- Number of Times Runperiod to be Repeated

OS:LifeCycleCost:Parameters,
  {56147bea-cad7-4e56-b726-094d8e6ad0fe}, !- Handle
  ,                                       !- Analysis Type
  ,                                       !- Discounting Convention
  ,                                       !- Inflation Approach
  ,                                       !- Real Discount Rate
  ,                                       !- Nominal Discount Rate
  ,                                       !- Inflation
  ,                                       !- Base Date Month
  ,                                       !- Base Date Year
  ,                                       !- Service Date Month
  ,                                       !- Service Date Year
  ;                                       !- Length of Study Period in Years

OS:ThermalZone,
  {88d9f61f-429c-498a-926f-fe0a400a9780}, !- Handle
  living zone,                            !- Name
  ,                                       !- Multiplier
  ,                                       !- Ceiling Height {m}
  ,                                       !- Volume {m3}
  ,                                       !- Floor Area {m2}
  ,                                       !- Zone Inside Convection Algorithm
  ,                                       !- Zone Outside Convection Algorithm
  ,                                       !- Zone Conditioning Equipment List Name
  {5b052e10-75a1-43a4-ae54-191abb605fc9}, !- Zone Air Inlet Port List
  {95432b5c-111b-4bfb-99c1-167ad5146c5b}, !- Zone Air Exhaust Port List
  {24b0fabb-5831-4162-9b97-5636bce6bf33}, !- Zone Air Node Name
  {5397b2da-0664-420a-9393-543e8af37426}, !- Zone Return Air Port List
  ,                                       !- Primary Daylighting Control Name
  ,                                       !- Fraction of Zone Controlled by Primary Daylighting Control
  ,                                       !- Secondary Daylighting Control Name
  ,                                       !- Fraction of Zone Controlled by Secondary Daylighting Control
  ,                                       !- Illuminance Map Name
  ,                                       !- Group Rendering Name
  ,                                       !- Thermostat Name
  No;                                     !- Use Ideal Air Loads

OS:Node,
  {660d8e9c-c4c3-4839-8f20-852e90dfee13}, !- Handle
  Node 1,                                 !- Name
  {24b0fabb-5831-4162-9b97-5636bce6bf33}, !- Inlet Port
  ;                                       !- Outlet Port

OS:Connection,
  {24b0fabb-5831-4162-9b97-5636bce6bf33}, !- Handle
  {3288a0d2-8b45-4698-866d-c04c7fb4f530}, !- Name
  {88d9f61f-429c-498a-926f-fe0a400a9780}, !- Source Object
  11,                                     !- Outlet Port
  {660d8e9c-c4c3-4839-8f20-852e90dfee13}, !- Target Object
  2;                                      !- Inlet Port

OS:PortList,
  {5b052e10-75a1-43a4-ae54-191abb605fc9}, !- Handle
  {33f69d47-650e-4ed7-b11f-80ec0123daeb}, !- Name
  {88d9f61f-429c-498a-926f-fe0a400a9780}; !- HVAC Component

OS:PortList,
  {95432b5c-111b-4bfb-99c1-167ad5146c5b}, !- Handle
  {063f405c-31c4-46fd-8412-95c7e9d0e290}, !- Name
  {88d9f61f-429c-498a-926f-fe0a400a9780}; !- HVAC Component

OS:PortList,
  {5397b2da-0664-420a-9393-543e8af37426}, !- Handle
  {05358c59-c729-4ca6-b79c-4868326e9a17}, !- Name
  {88d9f61f-429c-498a-926f-fe0a400a9780}; !- HVAC Component

OS:Sizing:Zone,
  {a47f05b2-dc61-4e92-afbf-77a600e0609f}, !- Handle
  {88d9f61f-429c-498a-926f-fe0a400a9780}, !- Zone or ZoneList Name
  SupplyAirTemperature,                   !- Zone Cooling Design Supply Air Temperature Input Method
  14,                                     !- Zone Cooling Design Supply Air Temperature {C}
  11.11,                                  !- Zone Cooling Design Supply Air Temperature Difference {deltaC}
  SupplyAirTemperature,                   !- Zone Heating Design Supply Air Temperature Input Method
  40,                                     !- Zone Heating Design Supply Air Temperature {C}
  11.11,                                  !- Zone Heating Design Supply Air Temperature Difference {deltaC}
  0.0085,                                 !- Zone Cooling Design Supply Air Humidity Ratio {kg-H2O/kg-air}
  0.008,                                  !- Zone Heating Design Supply Air Humidity Ratio {kg-H2O/kg-air}
  ,                                       !- Zone Heating Sizing Factor
  ,                                       !- Zone Cooling Sizing Factor
  DesignDay,                              !- Cooling Design Air Flow Method
  ,                                       !- Cooling Design Air Flow Rate {m3/s}
  ,                                       !- Cooling Minimum Air Flow per Zone Floor Area {m3/s-m2}
  ,                                       !- Cooling Minimum Air Flow {m3/s}
  ,                                       !- Cooling Minimum Air Flow Fraction
  DesignDay,                              !- Heating Design Air Flow Method
  ,                                       !- Heating Design Air Flow Rate {m3/s}
  ,                                       !- Heating Maximum Air Flow per Zone Floor Area {m3/s-m2}
  ,                                       !- Heating Maximum Air Flow {m3/s}
  ,                                       !- Heating Maximum Air Flow Fraction
  ,                                       !- Design Zone Air Distribution Effectiveness in Cooling Mode
  ,                                       !- Design Zone Air Distribution Effectiveness in Heating Mode
  No,                                     !- Account for Dedicated Outdoor Air System
  NeutralSupplyAir,                       !- Dedicated Outdoor Air System Control Strategy
  autosize,                               !- Dedicated Outdoor Air Low Setpoint Temperature for Design {C}
  autosize;                               !- Dedicated Outdoor Air High Setpoint Temperature for Design {C}

OS:ZoneHVAC:EquipmentList,
  {214bd47c-0689-42c0-8791-cddc35298801}, !- Handle
  Zone HVAC Equipment List 1,             !- Name
  {88d9f61f-429c-498a-926f-fe0a400a9780}; !- Thermal Zone

OS:Space,
  {c5ee2958-e8ab-42e1-b163-5f7002ade024}, !- Handle
  living space,                           !- Name
  {48869d7b-5f0d-47af-ab59-f6c6ca289a9b}, !- Space Type Name
  ,                                       !- Default Construction Set Name
  ,                                       !- Default Schedule Set Name
  ,                                       !- Direction of Relative North {deg}
  ,                                       !- X Origin {m}
  ,                                       !- Y Origin {m}
  ,                                       !- Z Origin {m}
  ,                                       !- Building Story Name
  {88d9f61f-429c-498a-926f-fe0a400a9780}, !- Thermal Zone Name
  ,                                       !- Part of Total Floor Area
  ,                                       !- Design Specification Outdoor Air Object Name
  {3a67793f-cf9a-4a98-ae86-3f241466444e}; !- Building Unit Name

OS:Surface,
  {d605e6a3-5fda-4ea1-a3a4-ad2f8615d910}, !- Handle
  Surface 1,                              !- Name
  Floor,                                  !- Surface Type
  ,                                       !- Construction Name
  {c5ee2958-e8ab-42e1-b163-5f7002ade024}, !- Space Name
  Surface,                                !- Outside Boundary Condition
  {5ecb98ce-1176-4324-9ba1-1e4649a9315b}, !- Outside Boundary Condition Object
  NoSun,                                  !- Sun Exposure
  NoWind,                                 !- Wind Exposure
  ,                                       !- View Factor to Ground
  ,                                       !- Number of Vertices
  0, -9.144, 0,                           !- X,Y,Z Vertex 1 {m}
  0, 0, 0,                                !- X,Y,Z Vertex 2 {m}
  4.572, 0, 0,                            !- X,Y,Z Vertex 3 {m}
  4.572, -9.144, 0;                       !- X,Y,Z Vertex 4 {m}

OS:Surface,
  {1bcdea6c-ef94-451f-8036-46446b6a3824}, !- Handle
  Surface 2,                              !- Name
  Wall,                                   !- Surface Type
  ,                                       !- Construction Name
  {c5ee2958-e8ab-42e1-b163-5f7002ade024}, !- Space Name
  Outdoors,                               !- Outside Boundary Condition
  ,                                       !- Outside Boundary Condition Object
  SunExposed,                             !- Sun Exposure
  WindExposed,                            !- Wind Exposure
  ,                                       !- View Factor to Ground
  ,                                       !- Number of Vertices
  0, 0, 2.4384,                           !- X,Y,Z Vertex 1 {m}
  0, 0, 0,                                !- X,Y,Z Vertex 2 {m}
  0, -9.144, 0,                           !- X,Y,Z Vertex 3 {m}
  0, -9.144, 2.4384;                      !- X,Y,Z Vertex 4 {m}

OS:Surface,
  {ed6483da-ebae-40c3-8250-32764e92fbb3}, !- Handle
  Surface 3,                              !- Name
  Wall,                                   !- Surface Type
  ,                                       !- Construction Name
  {c5ee2958-e8ab-42e1-b163-5f7002ade024}, !- Space Name
  Outdoors,                               !- Outside Boundary Condition
  ,                                       !- Outside Boundary Condition Object
  SunExposed,                             !- Sun Exposure
  WindExposed,                            !- Wind Exposure
  ,                                       !- View Factor to Ground
  ,                                       !- Number of Vertices
  4.572, 0, 2.4384,                       !- X,Y,Z Vertex 1 {m}
  4.572, 0, 0,                            !- X,Y,Z Vertex 2 {m}
  0, 0, 0,                                !- X,Y,Z Vertex 3 {m}
  0, 0, 2.4384;                           !- X,Y,Z Vertex 4 {m}

OS:Surface,
  {b1181b91-d7d5-4fbb-9db2-6b2169996ad2}, !- Handle
  Surface 4,                              !- Name
  Wall,                                   !- Surface Type
  ,                                       !- Construction Name
  {c5ee2958-e8ab-42e1-b163-5f7002ade024}, !- Space Name
  Surface,                                !- Outside Boundary Condition
  {345238e6-bdab-42f8-bf67-8e3e58855fe4}, !- Outside Boundary Condition Object
  NoSun,                                  !- Sun Exposure
  NoWind,                                 !- Wind Exposure
  ,                                       !- View Factor to Ground
  ,                                       !- Number of Vertices
  4.572, -9.144, 2.4384,                  !- X,Y,Z Vertex 1 {m}
  4.572, -9.144, 0,                       !- X,Y,Z Vertex 2 {m}
  4.572, 0, 0,                            !- X,Y,Z Vertex 3 {m}
  4.572, 0, 2.4384;                       !- X,Y,Z Vertex 4 {m}

OS:Surface,
  {8589cffe-3986-4806-bcb7-5b9f5cfd99da}, !- Handle
  Surface 5,                              !- Name
  Wall,                                   !- Surface Type
  ,                                       !- Construction Name
  {c5ee2958-e8ab-42e1-b163-5f7002ade024}, !- Space Name
  Outdoors,                               !- Outside Boundary Condition
  ,                                       !- Outside Boundary Condition Object
  SunExposed,                             !- Sun Exposure
  WindExposed,                            !- Wind Exposure
  ,                                       !- View Factor to Ground
  ,                                       !- Number of Vertices
  0, -9.144, 2.4384,                      !- X,Y,Z Vertex 1 {m}
  0, -9.144, 0,                           !- X,Y,Z Vertex 2 {m}
  4.572, -9.144, 0,                       !- X,Y,Z Vertex 3 {m}
  4.572, -9.144, 2.4384;                  !- X,Y,Z Vertex 4 {m}

OS:Surface,
  {8057be10-c3a4-4d50-9ef8-c2a0032fbf69}, !- Handle
  Surface 6,                              !- Name
  RoofCeiling,                            !- Surface Type
  ,                                       !- Construction Name
  {c5ee2958-e8ab-42e1-b163-5f7002ade024}, !- Space Name
  Surface,                                !- Outside Boundary Condition
  {413c5049-a256-4635-a44b-7d72b7c2f115}, !- Outside Boundary Condition Object
  NoSun,                                  !- Sun Exposure
  NoWind,                                 !- Wind Exposure
  ,                                       !- View Factor to Ground
  ,                                       !- Number of Vertices
  4.572, -9.144, 2.4384,                  !- X,Y,Z Vertex 1 {m}
  4.572, 0, 2.4384,                       !- X,Y,Z Vertex 2 {m}
  0, 0, 2.4384,                           !- X,Y,Z Vertex 3 {m}
  0, -9.144, 2.4384;                      !- X,Y,Z Vertex 4 {m}

OS:SpaceType,
  {48869d7b-5f0d-47af-ab59-f6c6ca289a9b}, !- Handle
  Space Type 1,                           !- Name
  ,                                       !- Default Construction Set Name
  ,                                       !- Default Schedule Set Name
  ,                                       !- Group Rendering Name
  ,                                       !- Design Specification Outdoor Air Object Name
  ,                                       !- Standards Building Type
  living;                                 !- Standards Space Type

OS:ThermalZone,
  {f440e7f9-d536-40c8-8cf8-ac3fb7b95973}, !- Handle
  living zone|unit 2,                     !- Name
  ,                                       !- Multiplier
  ,                                       !- Ceiling Height {m}
  ,                                       !- Volume {m3}
  ,                                       !- Floor Area {m2}
  ,                                       !- Zone Inside Convection Algorithm
  ,                                       !- Zone Outside Convection Algorithm
  ,                                       !- Zone Conditioning Equipment List Name
  {06647e46-0dbc-4a43-b0d5-fc3885442724}, !- Zone Air Inlet Port List
  {de80436e-a8b3-4303-9e25-999bf5c93acb}, !- Zone Air Exhaust Port List
  {d2221fb2-e952-42a6-adce-932796a1f3cd}, !- Zone Air Node Name
  {229de3f7-51d1-43cc-b1a8-dbaeaa15fa17}, !- Zone Return Air Port List
  ,                                       !- Primary Daylighting Control Name
  ,                                       !- Fraction of Zone Controlled by Primary Daylighting Control
  ,                                       !- Secondary Daylighting Control Name
  ,                                       !- Fraction of Zone Controlled by Secondary Daylighting Control
  ,                                       !- Illuminance Map Name
  ,                                       !- Group Rendering Name
  ,                                       !- Thermostat Name
  No;                                     !- Use Ideal Air Loads

OS:Node,
  {175beeba-e678-4cae-b628-a02941641323}, !- Handle
  Node 2,                                 !- Name
  {d2221fb2-e952-42a6-adce-932796a1f3cd}, !- Inlet Port
  ;                                       !- Outlet Port

OS:Connection,
  {d2221fb2-e952-42a6-adce-932796a1f3cd}, !- Handle
  {4284f41c-ff50-43fd-ac60-f2ea20f03c6b}, !- Name
  {f440e7f9-d536-40c8-8cf8-ac3fb7b95973}, !- Source Object
  11,                                     !- Outlet Port
  {175beeba-e678-4cae-b628-a02941641323}, !- Target Object
  2;                                      !- Inlet Port

OS:PortList,
  {06647e46-0dbc-4a43-b0d5-fc3885442724}, !- Handle
  {95506d08-20d5-4f75-b009-b5de04da25b8}, !- Name
  {f440e7f9-d536-40c8-8cf8-ac3fb7b95973}; !- HVAC Component

OS:PortList,
  {de80436e-a8b3-4303-9e25-999bf5c93acb}, !- Handle
  {8aac6b69-46dd-42d9-9e9a-1b71e5196de6}, !- Name
  {f440e7f9-d536-40c8-8cf8-ac3fb7b95973}; !- HVAC Component

OS:PortList,
  {229de3f7-51d1-43cc-b1a8-dbaeaa15fa17}, !- Handle
  {0e798858-a710-4f0f-af60-bb161d541895}, !- Name
  {f440e7f9-d536-40c8-8cf8-ac3fb7b95973}; !- HVAC Component

OS:Sizing:Zone,
  {275d94da-8092-4921-b56f-7e8b3bce9cb7}, !- Handle
  {f440e7f9-d536-40c8-8cf8-ac3fb7b95973}, !- Zone or ZoneList Name
  SupplyAirTemperature,                   !- Zone Cooling Design Supply Air Temperature Input Method
  14,                                     !- Zone Cooling Design Supply Air Temperature {C}
  11.11,                                  !- Zone Cooling Design Supply Air Temperature Difference {deltaC}
  SupplyAirTemperature,                   !- Zone Heating Design Supply Air Temperature Input Method
  40,                                     !- Zone Heating Design Supply Air Temperature {C}
  11.11,                                  !- Zone Heating Design Supply Air Temperature Difference {deltaC}
  0.0085,                                 !- Zone Cooling Design Supply Air Humidity Ratio {kg-H2O/kg-air}
  0.008,                                  !- Zone Heating Design Supply Air Humidity Ratio {kg-H2O/kg-air}
  ,                                       !- Zone Heating Sizing Factor
  ,                                       !- Zone Cooling Sizing Factor
  DesignDay,                              !- Cooling Design Air Flow Method
  ,                                       !- Cooling Design Air Flow Rate {m3/s}
  ,                                       !- Cooling Minimum Air Flow per Zone Floor Area {m3/s-m2}
  ,                                       !- Cooling Minimum Air Flow {m3/s}
  ,                                       !- Cooling Minimum Air Flow Fraction
  DesignDay,                              !- Heating Design Air Flow Method
  ,                                       !- Heating Design Air Flow Rate {m3/s}
  ,                                       !- Heating Maximum Air Flow per Zone Floor Area {m3/s-m2}
  ,                                       !- Heating Maximum Air Flow {m3/s}
  ,                                       !- Heating Maximum Air Flow Fraction
  ,                                       !- Design Zone Air Distribution Effectiveness in Cooling Mode
  ,                                       !- Design Zone Air Distribution Effectiveness in Heating Mode
  No,                                     !- Account for Dedicated Outdoor Air System
  NeutralSupplyAir,                       !- Dedicated Outdoor Air System Control Strategy
  autosize,                               !- Dedicated Outdoor Air Low Setpoint Temperature for Design {C}
  autosize;                               !- Dedicated Outdoor Air High Setpoint Temperature for Design {C}

OS:ZoneHVAC:EquipmentList,
  {0e6cb5c2-f5bc-4711-a9af-9763aee9d1c7}, !- Handle
  Zone HVAC Equipment List 2,             !- Name
  {f440e7f9-d536-40c8-8cf8-ac3fb7b95973}; !- Thermal Zone

OS:Space,
  {25defbfc-d686-408d-bbf3-8ec2810ee32e}, !- Handle
  living space|unit 2|story 1,            !- Name
  {48869d7b-5f0d-47af-ab59-f6c6ca289a9b}, !- Space Type Name
  ,                                       !- Default Construction Set Name
  ,                                       !- Default Schedule Set Name
  -0,                                     !- Direction of Relative North {deg}
  0,                                      !- X Origin {m}
  0,                                      !- Y Origin {m}
  0,                                      !- Z Origin {m}
  ,                                       !- Building Story Name
  {f440e7f9-d536-40c8-8cf8-ac3fb7b95973}, !- Thermal Zone Name
  ,                                       !- Part of Total Floor Area
  ,                                       !- Design Specification Outdoor Air Object Name
  {364aab5f-0966-47e4-8339-01ca9e6b79cb}; !- Building Unit Name

OS:Surface,
  {d11681be-7059-403c-bf8c-5e6dc228309d}, !- Handle
  Surface 12,                             !- Name
  Wall,                                   !- Surface Type
  ,                                       !- Construction Name
  {25defbfc-d686-408d-bbf3-8ec2810ee32e}, !- Space Name
  Outdoors,                               !- Outside Boundary Condition
  ,                                       !- Outside Boundary Condition Object
  SunExposed,                             !- Sun Exposure
  WindExposed,                            !- Wind Exposure
  ,                                       !- View Factor to Ground
  ,                                       !- Number of Vertices
  9.144, 0, 2.4384,                       !- X,Y,Z Vertex 1 {m}
  9.144, 0, 0,                            !- X,Y,Z Vertex 2 {m}
  4.572, 0, 0,                            !- X,Y,Z Vertex 3 {m}
  4.572, 0, 2.4384;                       !- X,Y,Z Vertex 4 {m}

OS:Surface,
  {868a1c32-ecea-4319-b965-be3f811e34cf}, !- Handle
  Surface 13,                             !- Name
  RoofCeiling,                            !- Surface Type
  ,                                       !- Construction Name
  {25defbfc-d686-408d-bbf3-8ec2810ee32e}, !- Space Name
  Surface,                                !- Outside Boundary Condition
  {dc300175-feb0-43c3-b838-ae72c00be0cf}, !- Outside Boundary Condition Object
  NoSun,                                  !- Sun Exposure
  NoWind,                                 !- Wind Exposure
  ,                                       !- View Factor to Ground
  ,                                       !- Number of Vertices
  9.144, -9.144, 2.4384,                  !- X,Y,Z Vertex 1 {m}
  9.144, 0, 2.4384,                       !- X,Y,Z Vertex 2 {m}
  4.572, 0, 2.4384,                       !- X,Y,Z Vertex 3 {m}
  4.572, -9.144, 2.4384;                  !- X,Y,Z Vertex 4 {m}

OS:Surface,
  {1954f438-a6f8-4338-b97f-29fcefb6428d}, !- Handle
  Surface 14,                             !- Name
  Wall,                                   !- Surface Type
  ,                                       !- Construction Name
  {25defbfc-d686-408d-bbf3-8ec2810ee32e}, !- Space Name
  Outdoors,                               !- Outside Boundary Condition
  ,                                       !- Outside Boundary Condition Object
  SunExposed,                             !- Sun Exposure
  WindExposed,                            !- Wind Exposure
  ,                                       !- View Factor to Ground
  ,                                       !- Number of Vertices
  4.572, -9.144, 2.4384,                  !- X,Y,Z Vertex 1 {m}
  4.572, -9.144, 0,                       !- X,Y,Z Vertex 2 {m}
  9.144, -9.144, 0,                       !- X,Y,Z Vertex 3 {m}
  9.144, -9.144, 2.4384;                  !- X,Y,Z Vertex 4 {m}

OS:Surface,
  {86407544-9ee1-49d3-a91b-649c18921b68}, !- Handle
  Surface 15,                             !- Name
  Floor,                                  !- Surface Type
  ,                                       !- Construction Name
  {25defbfc-d686-408d-bbf3-8ec2810ee32e}, !- Space Name
  Surface,                                !- Outside Boundary Condition
  {3e1038b8-003c-438b-aa1f-7d21b4c982ad}, !- Outside Boundary Condition Object
  NoSun,                                  !- Sun Exposure
  NoWind,                                 !- Wind Exposure
  ,                                       !- View Factor to Ground
  ,                                       !- Number of Vertices
  4.572, -9.144, 0,                       !- X,Y,Z Vertex 1 {m}
  4.572, 0, 0,                            !- X,Y,Z Vertex 2 {m}
  9.144, 0, 0,                            !- X,Y,Z Vertex 3 {m}
  9.144, -9.144, 0;                       !- X,Y,Z Vertex 4 {m}

OS:Surface,
  {345238e6-bdab-42f8-bf67-8e3e58855fe4}, !- Handle
  Surface 16,                             !- Name
  Wall,                                   !- Surface Type
  ,                                       !- Construction Name
  {25defbfc-d686-408d-bbf3-8ec2810ee32e}, !- Space Name
  Surface,                                !- Outside Boundary Condition
  {b1181b91-d7d5-4fbb-9db2-6b2169996ad2}, !- Outside Boundary Condition Object
  NoSun,                                  !- Sun Exposure
  NoWind,                                 !- Wind Exposure
  ,                                       !- View Factor to Ground
  ,                                       !- Number of Vertices
  4.572, 0, 2.4384,                       !- X,Y,Z Vertex 1 {m}
  4.572, 0, 0,                            !- X,Y,Z Vertex 2 {m}
  4.572, -9.144, 0,                       !- X,Y,Z Vertex 3 {m}
  4.572, -9.144, 2.4384;                  !- X,Y,Z Vertex 4 {m}

OS:Surface,
  {ddfeff0d-038c-4523-8e39-c868e147f291}, !- Handle
  Surface 17,                             !- Name
  Wall,                                   !- Surface Type
  ,                                       !- Construction Name
  {25defbfc-d686-408d-bbf3-8ec2810ee32e}, !- Space Name
  Surface,                                !- Outside Boundary Condition
  {a35c054c-547e-46c1-9afd-bcb5e5e11f99}, !- Outside Boundary Condition Object
  NoSun,                                  !- Sun Exposure
  NoWind,                                 !- Wind Exposure
  ,                                       !- View Factor to Ground
  ,                                       !- Number of Vertices
  9.144, -9.144, 2.4384,                  !- X,Y,Z Vertex 1 {m}
  9.144, -9.144, 0,                       !- X,Y,Z Vertex 2 {m}
  9.144, 0, 0,                            !- X,Y,Z Vertex 3 {m}
  9.144, 0, 2.4384;                       !- X,Y,Z Vertex 4 {m}

OS:ThermalZone,
  {444c5951-787a-4c34-9ebd-dcfc4b00232d}, !- Handle
  living zone|unit 3,                     !- Name
  ,                                       !- Multiplier
  ,                                       !- Ceiling Height {m}
  ,                                       !- Volume {m3}
  ,                                       !- Floor Area {m2}
  ,                                       !- Zone Inside Convection Algorithm
  ,                                       !- Zone Outside Convection Algorithm
  ,                                       !- Zone Conditioning Equipment List Name
  {a30c6178-d9dc-4170-b8e0-d5587c7f5dd8}, !- Zone Air Inlet Port List
  {390f505e-7be7-4719-acea-04a3cfcfc4e4}, !- Zone Air Exhaust Port List
  {eb90045a-a222-488a-b5d7-c8e6c114d33e}, !- Zone Air Node Name
  {107b76e1-b30e-4fcd-90f7-fefe5ba0f237}, !- Zone Return Air Port List
  ,                                       !- Primary Daylighting Control Name
  ,                                       !- Fraction of Zone Controlled by Primary Daylighting Control
  ,                                       !- Secondary Daylighting Control Name
  ,                                       !- Fraction of Zone Controlled by Secondary Daylighting Control