!- NOTE: Auto-generated from /test/osw_files/SFA_4units_1story_FB_UA_3Beds_2Baths_Denver_WHTank_HWFixtures.osw

OS:Version,
  {8bd95d78-41fe-4b0d-91e4-b72f84ce4b6d}, !- Handle
  2.6.2;                                  !- Version Identifier

OS:Building,
  {2503b509-7934-434b-bbae-84e0459e82db}, !- Handle
  Building 1,                             !- Name
  ,                                       !- Building Sector Type
  0,                                      !- North Axis {deg}
  ,                                       !- Nominal Floor to Floor Height {m}
  ,                                       !- Space Type Name
  ,                                       !- Default Construction Set Name
  ,                                       !- Default Schedule Set Name
  2,                                      !- Standards Number of Stories
  1,                                      !- Standards Number of Above Ground Stories
  singlefamilyattached,                   !- Standards Building Type
  4;                                      !- Standards Number of Living Units

OS:Facility,
  {36c0b359-7ba7-49b4-a1f2-a6c531c33203}; !- Handle

OS:Site,
  {0956c4ab-4362-40d7-a9dc-2799f2663cdf}, !- Handle
  Denver Intl Ap_CO_USA,                  !- Name
  39.83,                                  !- Latitude {deg}
  -104.65,                                !- Longitude {deg}
  -7,                                     !- Time Zone {hr}
  1650,                                   !- Elevation {m}
  ;                                       !- Terrain

OS:SimulationControl,
  {a542710e-1085-4af5-8186-dc54a1ed735a}, !- Handle
  ,                                       !- Do Zone Sizing Calculation
  ,                                       !- Do System Sizing Calculation
  ,                                       !- Do Plant Sizing Calculation
  No;                                     !- Run Simulation for Sizing Periods

OS:Sizing:Parameters,
  {ffdcca78-b4e9-4042-b18b-a3a71633679b}, !- Handle
  1.25,                                   !- Heating Sizing Factor
  1.15;                                   !- Cooling Sizing Factor

OS:Timestep,
  {0e4c8312-de0e-46f2-aa16-88674cfece49}, !- Handle
  6;                                      !- Number of Timesteps per Hour

OS:ShadowCalculation,
  {cfeeef70-df69-41f5-8fac-6a22a2d4dce7}, !- Handle
  20,                                     !- Calculation Frequency
  200;                                    !- Maximum Figures in Shadow Overlap Calculations

OS:HeatBalanceAlgorithm,
  {46a5d948-64d0-4613-a09c-bd6b95deddc8}, !- Handle
  ConductionTransferFunction,             !- Algorithm
  200;                                    !- Surface Temperature Upper Limit {C}

OS:RunPeriod,
  {60b8a530-76e5-4e14-8bc0-0d6313e2f82f}, !- Handle
  Run Period 1,                           !- Name
  1,                                      !- Begin Month
  1,                                      !- Begin Day of Month
  12,                                     !- End Month
  31,                                     !- End Day of Month
  ,                                       !- Use Weather File Holidays and Special Days
  ,                                       !- Use Weather File Daylight Saving Period
  ,                                       !- Apply Weekend Holiday Rule
  ,                                       !- Use Weather File Rain Indicators
  ,                                       !- Use Weather File Snow Indicators
  ;                                       !- Number of Times Runperiod to be Repeated

OS:LifeCycleCost:Parameters,
  {d30b28a9-c314-410e-922d-a83f973a7460}, !- Handle
  ,                                       !- Analysis Type
  ,                                       !- Discounting Convention
  ,                                       !- Inflation Approach
  ,                                       !- Real Discount Rate
  ,                                       !- Nominal Discount Rate
  ,                                       !- Inflation
  ,                                       !- Base Date Month
  ,                                       !- Base Date Year
  ,                                       !- Service Date Month
  ,                                       !- Service Date Year
  ;                                       !- Length of Study Period in Years

OS:SurfaceConvectionAlgorithm:Outside,
  {275f5d13-0b24-4e97-ad30-3a7ed1e72dba}, !- Handle
  DOE-2;                                  !- Algorithm

OS:SurfaceConvectionAlgorithm:Inside,
  {080ed8fd-0f5d-45a1-8fe3-edf189773e4f}, !- Handle
  TARP;                                   !- Algorithm

OS:ZoneCapacitanceMultiplier:ResearchSpecial,
  {7d575d2a-b730-4800-b150-fc9ec0d5392a}, !- Handle
  ,                                       !- Temperature Capacity Multiplier
  15,                                     !- Humidity Capacity Multiplier
  ;                                       !- Carbon Dioxide Capacity Multiplier

OS:ThermalZone,
  {27350b0b-4fb0-4b5d-97c2-970618f8a978}, !- Handle
  living zone,                            !- Name
  ,                                       !- Multiplier
  ,                                       !- Ceiling Height {m}
  ,                                       !- Volume {m3}
  ,                                       !- Floor Area {m2}
  ,                                       !- Zone Inside Convection Algorithm
  ,                                       !- Zone Outside Convection Algorithm
  ,                                       !- Zone Conditioning Equipment List Name
  {4d7eb10e-f454-427e-8cb4-0e4e1e37e6e3}, !- Zone Air Inlet Port List
  {53460d8e-2255-4072-ad6e-98c3f1bb864b}, !- Zone Air Exhaust Port List
  {c7a5f882-774f-4dc5-9343-712b74af7ba8}, !- Zone Air Node Name
  {a56c7cc4-0850-4a9c-b1e3-34bbceb4735e}, !- Zone Return Air Port List
  ,                                       !- Primary Daylighting Control Name
  ,                                       !- Fraction of Zone Controlled by Primary Daylighting Control
  ,                                       !- Secondary Daylighting Control Name
  ,                                       !- Fraction of Zone Controlled by Secondary Daylighting Control
  ,                                       !- Illuminance Map Name
  ,                                       !- Group Rendering Name
  ,                                       !- Thermostat Name
  No;                                     !- Use Ideal Air Loads

OS:Node,
  {c7cff5bf-b590-4ae6-8487-627b723a5223}, !- Handle
  Node 1,                                 !- Name
  {c7a5f882-774f-4dc5-9343-712b74af7ba8}, !- Inlet Port
  ;                                       !- Outlet Port

OS:Connection,
  {c7a5f882-774f-4dc5-9343-712b74af7ba8}, !- Handle
  {b89d48fe-5469-4374-9ed6-8f0951bde6b3}, !- Name
  {27350b0b-4fb0-4b5d-97c2-970618f8a978}, !- Source Object
  11,                                     !- Outlet Port
  {c7cff5bf-b590-4ae6-8487-627b723a5223}, !- Target Object
  2;                                      !- Inlet Port

OS:PortList,
  {4d7eb10e-f454-427e-8cb4-0e4e1e37e6e3}, !- Handle
  {4e083f59-3108-4c23-b300-33eeb8df7236}, !- Name
  {27350b0b-4fb0-4b5d-97c2-970618f8a978}; !- HVAC Component

OS:PortList,
  {53460d8e-2255-4072-ad6e-98c3f1bb864b}, !- Handle
  {6ee87907-59e1-4bea-aeb9-233fb1f4b162}, !- Name
  {27350b0b-4fb0-4b5d-97c2-970618f8a978}; !- HVAC Component

OS:PortList,
  {a56c7cc4-0850-4a9c-b1e3-34bbceb4735e}, !- Handle
  {6c28fa16-87a5-4366-b70e-de36f3285094}, !- Name
  {27350b0b-4fb0-4b5d-97c2-970618f8a978}; !- HVAC Component

OS:Sizing:Zone,
  {8c4c7da3-5101-4aa4-8f3e-fe174cfc34ae}, !- Handle
  {27350b0b-4fb0-4b5d-97c2-970618f8a978}, !- Zone or ZoneList Name
  SupplyAirTemperature,                   !- Zone Cooling Design Supply Air Temperature Input Method
  14,                                     !- Zone Cooling Design Supply Air Temperature {C}
  11.11,                                  !- Zone Cooling Design Supply Air Temperature Difference {deltaC}
  SupplyAirTemperature,                   !- Zone Heating Design Supply Air Temperature Input Method
  40,                                     !- Zone Heating Design Supply Air Temperature {C}
  11.11,                                  !- Zone Heating Design Supply Air Temperature Difference {deltaC}
  0.0085,                                 !- Zone Cooling Design Supply Air Humidity Ratio {kg-H2O/kg-air}
  0.008,                                  !- Zone Heating Design Supply Air Humidity Ratio {kg-H2O/kg-air}
  ,                                       !- Zone Heating Sizing Factor
  ,                                       !- Zone Cooling Sizing Factor
  DesignDay,                              !- Cooling Design Air Flow Method
  ,                                       !- Cooling Design Air Flow Rate {m3/s}
  ,                                       !- Cooling Minimum Air Flow per Zone Floor Area {m3/s-m2}
  ,                                       !- Cooling Minimum Air Flow {m3/s}
  ,                                       !- Cooling Minimum Air Flow Fraction
  DesignDay,                              !- Heating Design Air Flow Method
  ,                                       !- Heating Design Air Flow Rate {m3/s}
  ,                                       !- Heating Maximum Air Flow per Zone Floor Area {m3/s-m2}
  ,                                       !- Heating Maximum Air Flow {m3/s}
  ,                                       !- Heating Maximum Air Flow Fraction
  ,                                       !- Design Zone Air Distribution Effectiveness in Cooling Mode
  ,                                       !- Design Zone Air Distribution Effectiveness in Heating Mode
  No,                                     !- Account for Dedicated Outdoor Air System
  NeutralSupplyAir,                       !- Dedicated Outdoor Air System Control Strategy
  autosize,                               !- Dedicated Outdoor Air Low Setpoint Temperature for Design {C}
  autosize;                               !- Dedicated Outdoor Air High Setpoint Temperature for Design {C}

OS:ZoneHVAC:EquipmentList,
  {c4958c6e-4349-443c-94dc-fb0dd202a606}, !- Handle
  Zone HVAC Equipment List 1,             !- Name
  {27350b0b-4fb0-4b5d-97c2-970618f8a978}; !- Thermal Zone

OS:Space,
  {d6361268-3b04-4550-85f1-a165d4ddfd07}, !- Handle
  living space,                           !- Name
  {334ef550-2d0c-43a2-9d0a-4da0da976ced}, !- Space Type Name
  ,                                       !- Default Construction Set Name
  ,                                       !- Default Schedule Set Name
  ,                                       !- Direction of Relative North {deg}
  ,                                       !- X Origin {m}
  ,                                       !- Y Origin {m}
  ,                                       !- Z Origin {m}
  ,                                       !- Building Story Name
  {27350b0b-4fb0-4b5d-97c2-970618f8a978}, !- Thermal Zone Name
  ,                                       !- Part of Total Floor Area
  ,                                       !- Design Specification Outdoor Air Object Name
  {8c7a4a42-c346-4f57-96c2-21bfab71034d}; !- Building Unit Name

OS:Surface,
  {7c973b3e-6038-49ae-813a-bc66a4be5b71}, !- Handle
  Surface 1,                              !- Name
  Floor,                                  !- Surface Type
  ,                                       !- Construction Name
  {d6361268-3b04-4550-85f1-a165d4ddfd07}, !- Space Name
  Surface,                                !- Outside Boundary Condition
  {f2eaff6d-4e70-406e-82b7-3ed99714030b}, !- Outside Boundary Condition Object
  NoSun,                                  !- Sun Exposure
  NoWind,                                 !- Wind Exposure
  ,                                       !- View Factor to Ground
  ,                                       !- Number of Vertices
  0, -9.144, 0,                           !- X,Y,Z Vertex 1 {m}
  0, 0, 0,                                !- X,Y,Z Vertex 2 {m}
  4.572, 0, 0,                            !- X,Y,Z Vertex 3 {m}
  4.572, -9.144, 0;                       !- X,Y,Z Vertex 4 {m}

OS:Surface,
  {ae8ac74d-fd24-4dff-bce6-517b8e173607}, !- Handle
  Surface 2,                              !- Name
  Wall,                                   !- Surface Type
  ,                                       !- Construction Name
  {d6361268-3b04-4550-85f1-a165d4ddfd07}, !- Space Name
  Outdoors,                               !- Outside Boundary Condition
  ,                                       !- Outside Boundary Condition Object
  SunExposed,                             !- Sun Exposure
  WindExposed,                            !- Wind Exposure
  ,                                       !- View Factor to Ground
  ,                                       !- Number of Vertices
  0, 0, 2.4384,                           !- X,Y,Z Vertex 1 {m}
  0, 0, 0,                                !- X,Y,Z Vertex 2 {m}
  0, -9.144, 0,                           !- X,Y,Z Vertex 3 {m}
  0, -9.144, 2.4384;                      !- X,Y,Z Vertex 4 {m}

OS:Surface,
  {67019ad4-05cb-4e6e-85d5-f4d4d9946c8d}, !- Handle
  Surface 3,                              !- Name
  Wall,                                   !- Surface Type
  ,                                       !- Construction Name
  {d6361268-3b04-4550-85f1-a165d4ddfd07}, !- Space Name
  Outdoors,                               !- Outside Boundary Condition
  ,                                       !- Outside Boundary Condition Object
  SunExposed,                             !- Sun Exposure
  WindExposed,                            !- Wind Exposure
  ,                                       !- View Factor to Ground
  ,                                       !- Number of Vertices
  4.572, 0, 2.4384,                       !- X,Y,Z Vertex 1 {m}
  4.572, 0, 0,                            !- X,Y,Z Vertex 2 {m}
  0, 0, 0,                                !- X,Y,Z Vertex 3 {m}
  0, 0, 2.4384;                           !- X,Y,Z Vertex 4 {m}

OS:Surface,
  {85c776c8-39ce-40be-a272-c70f12999aef}, !- Handle
  Surface 4,                              !- Name
  Wall,                                   !- Surface Type
  ,                                       !- Construction Name
  {d6361268-3b04-4550-85f1-a165d4ddfd07}, !- Space Name
  Surface,                                !- Outside Boundary Condition
  {17d3545b-5eee-465b-9686-f43a38399593}, !- Outside Boundary Condition Object
  NoSun,                                  !- Sun Exposure
  NoWind,                                 !- Wind Exposure
  ,                                       !- View Factor to Ground
  ,                                       !- Number of Vertices
  4.572, -9.144, 2.4384,                  !- X,Y,Z Vertex 1 {m}
  4.572, -9.144, 0,                       !- X,Y,Z Vertex 2 {m}
  4.572, 0, 0,                            !- X,Y,Z Vertex 3 {m}
  4.572, 0, 2.4384;                       !- X,Y,Z Vertex 4 {m}

OS:Surface,
  {277eb9fc-bc65-4539-8c1b-d3923189eaf8}, !- Handle
  Surface 5,                              !- Name
  Wall,                                   !- Surface Type
  ,                                       !- Construction Name
  {d6361268-3b04-4550-85f1-a165d4ddfd07}, !- Space Name
  Outdoors,                               !- Outside Boundary Condition
  ,                                       !- Outside Boundary Condition Object
  SunExposed,                             !- Sun Exposure
  WindExposed,                            !- Wind Exposure
  ,                                       !- View Factor to Ground
  ,                                       !- Number of Vertices
  0, -9.144, 2.4384,                      !- X,Y,Z Vertex 1 {m}
  0, -9.144, 0,                           !- X,Y,Z Vertex 2 {m}
  4.572, -9.144, 0,                       !- X,Y,Z Vertex 3 {m}
  4.572, -9.144, 2.4384;                  !- X,Y,Z Vertex 4 {m}

OS:Surface,
  {9d1cbcd1-52aa-4e00-9c23-747a06b2e691}, !- Handle
  Surface 6,                              !- Name
  RoofCeiling,                            !- Surface Type
  ,                                       !- Construction Name
  {d6361268-3b04-4550-85f1-a165d4ddfd07}, !- Space Name
  Surface,                                !- Outside Boundary Condition
  {604c1615-a386-4255-838d-f2ec2352e5ea}, !- Outside Boundary Condition Object
  NoSun,                                  !- Sun Exposure
  NoWind,                                 !- Wind Exposure
  ,                                       !- View Factor to Ground
  ,                                       !- Number of Vertices
  4.572, -9.144, 2.4384,                  !- X,Y,Z Vertex 1 {m}
  4.572, 0, 2.4384,                       !- X,Y,Z Vertex 2 {m}
  0, 0, 2.4384,                           !- X,Y,Z Vertex 3 {m}
  0, -9.144, 2.4384;                      !- X,Y,Z Vertex 4 {m}

OS:SpaceType,
  {334ef550-2d0c-43a2-9d0a-4da0da976ced}, !- Handle
  Space Type 1,                           !- Name
  ,                                       !- Default Construction Set Name
  ,                                       !- Default Schedule Set Name
  ,                                       !- Group Rendering Name
  ,                                       !- Design Specification Outdoor Air Object Name
  ,                                       !- Standards Building Type
  living;                                 !- Standards Space Type

OS:ThermalZone,
  {b0b72136-7a5a-4831-a1ab-16cf2ed7997f}, !- Handle
  living zone|unit 2,                     !- Name
  ,                                       !- Multiplier
  ,                                       !- Ceiling Height {m}
  ,                                       !- Volume {m3}
  ,                                       !- Floor Area {m2}
  ,                                       !- Zone Inside Convection Algorithm
  ,                                       !- Zone Outside Convection Algorithm
  ,                                       !- Zone Conditioning Equipment List Name
  {f40197bb-d128-42c1-9148-07bc71d9df52}, !- Zone Air Inlet Port List
  {b1f13f83-3944-46b7-9cac-03691648a59a}, !- Zone Air Exhaust Port List
  {624f7f9f-a6ff-46fc-972a-386f9202a7cf}, !- Zone Air Node Name
  {2ba0ce08-533c-42ce-b297-6b173cba38ee}, !- Zone Return Air Port List
  ,                                       !- Primary Daylighting Control Name
  ,                                       !- Fraction of Zone Controlled by Primary Daylighting Control
  ,                                       !- Secondary Daylighting Control Name
  ,                                       !- Fraction of Zone Controlled by Secondary Daylighting Control
  ,                                       !- Illuminance Map Name
  ,                                       !- Group Rendering Name
  ,                                       !- Thermostat Name
  No;                                     !- Use Ideal Air Loads

OS:Node,
  {4a00744f-76de-455f-917e-7748a03c9860}, !- Handle
  Node 2,                                 !- Name
  {624f7f9f-a6ff-46fc-972a-386f9202a7cf}, !- Inlet Port
  ;                                       !- Outlet Port

OS:Connection,
  {624f7f9f-a6ff-46fc-972a-386f9202a7cf}, !- Handle
  {7466629c-e974-405e-907b-104b96013527}, !- Name
  {b0b72136-7a5a-4831-a1ab-16cf2ed7997f}, !- Source Object
  11,                                     !- Outlet Port
  {4a00744f-76de-455f-917e-7748a03c9860}, !- Target Object
  2;                                      !- Inlet Port

OS:PortList,
  {f40197bb-d128-42c1-9148-07bc71d9df52}, !- Handle
  {6e67f3d7-c4c6-4deb-beb6-31d6da4bde9b}, !- Name
  {b0b72136-7a5a-4831-a1ab-16cf2ed7997f}; !- HVAC Component

OS:PortList,
  {b1f13f83-3944-46b7-9cac-03691648a59a}, !- Handle
  {235879b8-1ca3-45cd-b843-4dd7dedeb7fb}, !- Name
  {b0b72136-7a5a-4831-a1ab-16cf2ed7997f}; !- HVAC Component

OS:PortList,
  {2ba0ce08-533c-42ce-b297-6b173cba38ee}, !- Handle
  {19e87ed9-d083-4b87-9991-36400cc391d2}, !- Name
  {b0b72136-7a5a-4831-a1ab-16cf2ed7997f}; !- HVAC Component

OS:Sizing:Zone,
  {527fdf13-0e35-44d5-9b8f-cec5b7543e0d}, !- Handle
  {b0b72136-7a5a-4831-a1ab-16cf2ed7997f}, !- Zone or ZoneList Name
  SupplyAirTemperature,                   !- Zone Cooling Design Supply Air Temperature Input Method
  14,                                     !- Zone Cooling Design Supply Air Temperature {C}
  11.11,                                  !- Zone Cooling Design Supply Air Temperature Difference {deltaC}
  SupplyAirTemperature,                   !- Zone Heating Design Supply Air Temperature Input Method
  40,                                     !- Zone Heating Design Supply Air Temperature {C}
  11.11,                                  !- Zone Heating Design Supply Air Temperature Difference {deltaC}
  0.0085,                                 !- Zone Cooling Design Supply Air Humidity Ratio {kg-H2O/kg-air}
  0.008,                                  !- Zone Heating Design Supply Air Humidity Ratio {kg-H2O/kg-air}
  ,                                       !- Zone Heating Sizing Factor
  ,                                       !- Zone Cooling Sizing Factor
  DesignDay,                              !- Cooling Design Air Flow Method
  ,                                       !- Cooling Design Air Flow Rate {m3/s}
  ,                                       !- Cooling Minimum Air Flow per Zone Floor Area {m3/s-m2}
  ,                                       !- Cooling Minimum Air Flow {m3/s}
  ,                                       !- Cooling Minimum Air Flow Fraction
  DesignDay,                              !- Heating Design Air Flow Method
  ,                                       !- Heating Design Air Flow Rate {m3/s}
  ,                                       !- Heating Maximum Air Flow per Zone Floor Area {m3/s-m2}
  ,                                       !- Heating Maximum Air Flow {m3/s}
  ,                                       !- Heating Maximum Air Flow Fraction
  ,                                       !- Design Zone Air Distribution Effectiveness in Cooling Mode
  ,                                       !- Design Zone Air Distribution Effectiveness in Heating Mode
  No,                                     !- Account for Dedicated Outdoor Air System
  NeutralSupplyAir,                       !- Dedicated Outdoor Air System Control Strategy
  autosize,                               !- Dedicated Outdoor Air Low Setpoint Temperature for Design {C}
  autosize;                               !- Dedicated Outdoor Air High Setpoint Temperature for Design {C}

OS:ZoneHVAC:EquipmentList,
  {90734a29-bdfe-477b-91f2-8f375a67ba7d}, !- Handle
  Zone HVAC Equipment List 2,             !- Name
  {b0b72136-7a5a-4831-a1ab-16cf2ed7997f}; !- Thermal Zone

OS:Space,
  {406136e1-74b2-4186-b6b9-9ac3d4f3be5b}, !- Handle
  living space|unit 2|story 1,            !- Name
  {334ef550-2d0c-43a2-9d0a-4da0da976ced}, !- Space Type Name
  ,                                       !- Default Construction Set Name
  ,                                       !- Default Schedule Set Name
  -0,                                     !- Direction of Relative North {deg}
  0,                                      !- X Origin {m}
  0,                                      !- Y Origin {m}
  0,                                      !- Z Origin {m}
  ,                                       !- Building Story Name
  {b0b72136-7a5a-4831-a1ab-16cf2ed7997f}, !- Thermal Zone Name
  ,                                       !- Part of Total Floor Area
  ,                                       !- Design Specification Outdoor Air Object Name
  {133a5189-a571-42af-a9a9-58c01065dda8}; !- Building Unit Name

OS:Surface,
  {3182666f-2ab2-445c-bfbe-22ac802054a4}, !- Handle
  Surface 12,                             !- Name
  RoofCeiling,                            !- Surface Type
  ,                                       !- Construction Name
  {406136e1-74b2-4186-b6b9-9ac3d4f3be5b}, !- Space Name
  Surface,                                !- Outside Boundary Condition
  {49717789-6498-4029-8f9c-4e5d960106ef}, !- Outside Boundary Condition Object
  NoSun,                                  !- Sun Exposure
  NoWind,                                 !- Wind Exposure
  ,                                       !- View Factor to Ground
  ,                                       !- Number of Vertices
  9.144, -9.144, 2.4384,                  !- X,Y,Z Vertex 1 {m}
  9.144, 0, 2.4384,                       !- X,Y,Z Vertex 2 {m}
  4.572, 0, 2.4384,                       !- X,Y,Z Vertex 3 {m}
  4.572, -9.144, 2.4384;                  !- X,Y,Z Vertex 4 {m}

OS:Surface,
  {9923b17c-6ffb-4f63-887b-a73c4d6d300f}, !- Handle
  Surface 13,                             !- Name
  Floor,                                  !- Surface Type
  ,                                       !- Construction Name
  {406136e1-74b2-4186-b6b9-9ac3d4f3be5b}, !- Space Name
  Surface,                                !- Outside Boundary Condition
  {9c9cc652-f4d0-4cd7-abac-a8a968a2659f}, !- Outside Boundary Condition Object
  NoSun,                                  !- Sun Exposure
  NoWind,                                 !- Wind Exposure
  ,                                       !- View Factor to Ground
  ,                                       !- Number of Vertices
  4.572, -9.144, 0,                       !- X,Y,Z Vertex 1 {m}
  4.572, 0, 0,                            !- X,Y,Z Vertex 2 {m}
  9.144, 0, 0,                            !- X,Y,Z Vertex 3 {m}
  9.144, -9.144, 0;                       !- X,Y,Z Vertex 4 {m}

OS:Surface,
  {17d3545b-5eee-465b-9686-f43a38399593}, !- Handle
  Surface 14,                             !- Name
  Wall,                                   !- Surface Type
  ,                                       !- Construction Name
  {406136e1-74b2-4186-b6b9-9ac3d4f3be5b}, !- Space Name
  Surface,                                !- Outside Boundary Condition
  {85c776c8-39ce-40be-a272-c70f12999aef}, !- Outside Boundary Condition Object
  NoSun,                                  !- Sun Exposure
  NoWind,                                 !- Wind Exposure
  ,                                       !- View Factor to Ground
  ,                                       !- Number of Vertices
  4.572, 0, 2.4384,                       !- X,Y,Z Vertex 1 {m}
  4.572, 0, 0,                            !- X,Y,Z Vertex 2 {m}
  4.572, -9.144, 0,                       !- X,Y,Z Vertex 3 {m}
  4.572, -9.144, 2.4384;                  !- X,Y,Z Vertex 4 {m}

OS:Surface,
  {4016e150-f31f-457c-938e-e4c73b0d433e}, !- Handle
  Surface 15,                             !- Name
  Wall,                                   !- Surface Type
  ,                                       !- Construction Name
  {406136e1-74b2-4186-b6b9-9ac3d4f3be5b}, !- Space Name
  Outdoors,                               !- Outside Boundary Condition
  ,                                       !- Outside Boundary Condition Object
  SunExposed,                             !- Sun Exposure
  WindExposed,                            !- Wind Exposure
  ,                                       !- View Factor to Ground
  ,                                       !- Number of Vertices
  4.572, -9.144, 2.4384,                  !- X,Y,Z Vertex 1 {m}
  4.572, -9.144, 0,                       !- X,Y,Z Vertex 2 {m}
  9.144, -9.144, 0,                       !- X,Y,Z Vertex 3 {m}
  9.144, -9.144, 2.4384;                  !- X,Y,Z Vertex 4 {m}

OS:Surface,
  {a9ba8243-7e13-4c2c-863b-044a89c5fbb0}, !- Handle
  Surface 16,                             !- Name
  Wall,                                   !- Surface Type
  ,                                       !- Construction Name
  {406136e1-74b2-4186-b6b9-9ac3d4f3be5b}, !- Space Name
  Surface,                                !- Outside Boundary Condition
  {2fbee83a-dba8-41c4-8d07-12dba3528822}, !- Outside Boundary Condition Object
  NoSun,                                  !- Sun Exposure
  NoWind,                                 !- Wind Exposure
  ,                                       !- View Factor to Ground
  ,                                       !- Number of Vertices
  9.144, -9.144, 2.4384,                  !- X,Y,Z Vertex 1 {m}
  9.144, -9.144, 0,                       !- X,Y,Z Vertex 2 {m}
  9.144, 0, 0,                            !- X,Y,Z Vertex 3 {m}
  9.144, 0, 2.4384;                       !- X,Y,Z Vertex 4 {m}

OS:Surface,
  {8910b93e-4657-46d9-80f6-fa78254dd0d2}, !- Handle
  Surface 17,                             !- Name
  Wall,                                   !- Surface Type
  ,                                       !- Construction Name
  {406136e1-74b2-4186-b6b9-9ac3d4f3be5b}, !- Space Name
  Outdoors,                               !- Outside Boundary Condition
  ,                                       !- Outside Boundary Condition Object
  SunExposed,                             !- Sun Exposure
  WindExposed,                            !- Wind Exposure
  ,                                       !- View Factor to Ground
  ,                                       !- Number of Vertices
  9.144, 0, 2.4384,                       !- X,Y,Z Vertex 1 {m}
  9.144, 0, 0,                            !- X,Y,Z Vertex 2 {m}
  4.572, 0, 0,                            !- X,Y,Z Vertex 3 {m}
  4.572, 0, 2.4384;                       !- X,Y,Z Vertex 4 {m}

OS:ThermalZone,
  {bef18063-e028-4d24-90fd-bc9c7137b599}, !- Handle
  living zone|unit 3,                     !- Name
  ,                                       !- Multiplier
  ,                                       !- Ceiling Height {m}
  ,                                       !- Volume {m3}
  ,                                       !- Floor Area {m2}
  ,                                       !- Zone Inside Convection Algorithm
  ,                                       !- Zone Outside Convection Algorithm
  ,                                       !- Zone Conditioning Equipment List Name