!- NOTE: Auto-generated from /test/osw_files/SFA_4units_1story_FB_UA_3Beds_2Baths_Denver_WHTank_HWFixtures.osw

OS:Version,
  {59f0d419-b031-41e5-9bb6-d57e7d2577c2}, !- Handle
  2.7.0;                                  !- Version Identifier

OS:Building,
  {001f2f33-a68d-40ea-8667-ba9168c99042}, !- Handle
  Building 1,                             !- Name
  ,                                       !- Building Sector Type
  0,                                      !- North Axis {deg}
  ,                                       !- Nominal Floor to Floor Height {m}
  ,                                       !- Space Type Name
  ,                                       !- Default Construction Set Name
  ,                                       !- Default Schedule Set Name
  2,                                      !- Standards Number of Stories
  1,                                      !- Standards Number of Above Ground Stories
  ,                                       !- Standards Template
  singlefamilyttached,                    !- Standards Building Type
  4;                                      !- Standards Number of Living Units

OS:Facility,
  {13645f56-e9e2-4fbf-b262-ac2e54dff90c}; !- Handle

OS:Site,
  {7be4c713-2900-48e5-9132-6687685aa3e5}, !- Handle
  Denver Intl Ap_CO_USA,                  !- Name
  39.83,                                  !- Latitude {deg}
  -104.65,                                !- Longitude {deg}
  -7,                                     !- Time Zone {hr}
  1650,                                   !- Elevation {m}
  ;                                       !- Terrain

OS:SimulationControl,
  {a0ed2a86-61b3-4fd1-8348-6b058fc187ff}, !- Handle
  ,                                       !- Do Zone Sizing Calculation
  ,                                       !- Do System Sizing Calculation
  ,                                       !- Do Plant Sizing Calculation
  No;                                     !- Run Simulation for Sizing Periods

OS:Sizing:Parameters,
  {cc95bddd-b325-4fac-b8be-2dd967566190}, !- Handle
  1.25,                                   !- Heating Sizing Factor
  1.15;                                   !- Cooling Sizing Factor

OS:Timestep,
  {6033310a-a997-4680-8d57-060d10c3ad72}, !- Handle
  6;                                      !- Number of Timesteps per Hour

OS:ShadowCalculation,
  {1850d402-8e03-4874-889c-a0dc5820c0ff}, !- Handle
  20,                                     !- Calculation Frequency
  200;                                    !- Maximum Figures in Shadow Overlap Calculations

OS:HeatBalanceAlgorithm,
  {4a97ebb2-2df3-44a7-93bc-5da48441f68e}, !- Handle
  MoisturePenetrationDepthConductionTransferFunction, !- Algorithm
  200;                                    !- Surface Temperature Upper Limit {C}

OS:RunPeriod,
  {6fd21e5b-bb11-498d-bea9-0a880dba6d88}, !- Handle
  Run Period 1,                           !- Name
  1,                                      !- Begin Month
  1,                                      !- Begin Day of Month
  12,                                     !- End Month
  31,                                     !- End Day of Month
  ,                                       !- Use Weather File Holidays and Special Days
  ,                                       !- Use Weather File Daylight Saving Period
  ,                                       !- Apply Weekend Holiday Rule
  ,                                       !- Use Weather File Rain Indicators
  ,                                       !- Use Weather File Snow Indicators
  ;                                       !- Number of Times Runperiod to be Repeated

OS:LifeCycleCost:Parameters,
  {3ee407fc-fba5-4ca5-98d3-25410eb3799b}, !- Handle
  ,                                       !- Analysis Type
  ,                                       !- Discounting Convention
  ,                                       !- Inflation Approach
  ,                                       !- Real Discount Rate
  ,                                       !- Nominal Discount Rate
  ,                                       !- Inflation
  ,                                       !- Base Date Month
  ,                                       !- Base Date Year
  ,                                       !- Service Date Month
  ,                                       !- Service Date Year
  ;                                       !- Length of Study Period in Years

OS:SurfaceConvectionAlgorithm:Outside,
  {f1491d0f-de46-41d3-8b65-44624d4cc863}, !- Handle
  DOE-2;                                  !- Algorithm

OS:SurfaceConvectionAlgorithm:Inside,
  {fd5191bc-46fb-4958-8b36-659d9cc4300e}, !- Handle
  TARP;                                   !- Algorithm

OS:ZoneCapacitanceMultiplier:ResearchSpecial,
  {a7c4035b-e38c-48a3-8488-61fe63bea45c}, !- Handle
  ,                                       !- Temperature Capacity Multiplier
  1,                                      !- Humidity Capacity Multiplier
  ;                                       !- Carbon Dioxide Capacity Multiplier

OS:ThermalZone,
  {183abb8f-8c8c-4b64-968e-c7c9af02c882}, !- Handle
  living zone,                            !- Name
  ,                                       !- Multiplier
  ,                                       !- Ceiling Height {m}
  ,                                       !- Volume {m3}
  ,                                       !- Floor Area {m2}
  ,                                       !- Zone Inside Convection Algorithm
  ,                                       !- Zone Outside Convection Algorithm
  ,                                       !- Zone Conditioning Equipment List Name
  {0293a5d1-4493-4e86-90dc-446e65b93c6c}, !- Zone Air Inlet Port List
  {bbd87b21-fa68-4e43-adcf-9f67a1fa75ff}, !- Zone Air Exhaust Port List
  {cec7e55c-9e05-409c-a2b8-5c8480236b78}, !- Zone Air Node Name
  {97dd8d51-2ca1-4a63-bc62-cd0c9948d1cf}, !- Zone Return Air Port List
  ,                                       !- Primary Daylighting Control Name
  ,                                       !- Fraction of Zone Controlled by Primary Daylighting Control
  ,                                       !- Secondary Daylighting Control Name
  ,                                       !- Fraction of Zone Controlled by Secondary Daylighting Control
  ,                                       !- Illuminance Map Name
  ,                                       !- Group Rendering Name
  ,                                       !- Thermostat Name
  No;                                     !- Use Ideal Air Loads

OS:Node,
  {3d1c0c96-a4db-4b94-8e75-8127c2295570}, !- Handle
  Node 1,                                 !- Name
  {cec7e55c-9e05-409c-a2b8-5c8480236b78}, !- Inlet Port
  ;                                       !- Outlet Port

OS:Connection,
  {cec7e55c-9e05-409c-a2b8-5c8480236b78}, !- Handle
  {770339e3-6a2f-4f27-933e-2fe87da1b025}, !- Name
  {183abb8f-8c8c-4b64-968e-c7c9af02c882}, !- Source Object
  11,                                     !- Outlet Port
  {3d1c0c96-a4db-4b94-8e75-8127c2295570}, !- Target Object
  2;                                      !- Inlet Port

OS:PortList,
  {0293a5d1-4493-4e86-90dc-446e65b93c6c}, !- Handle
  {30093add-4e0c-45d3-b707-bdd8d7c3fd5e}, !- Name
  {183abb8f-8c8c-4b64-968e-c7c9af02c882}; !- HVAC Component

OS:PortList,
  {bbd87b21-fa68-4e43-adcf-9f67a1fa75ff}, !- Handle
  {0b19a0a3-0538-41da-946d-9c503958754f}, !- Name
  {183abb8f-8c8c-4b64-968e-c7c9af02c882}; !- HVAC Component

OS:PortList,
  {97dd8d51-2ca1-4a63-bc62-cd0c9948d1cf}, !- Handle
  {7e26dc6e-329d-44e6-a8b3-5ce6a4a4c9e5}, !- Name
  {183abb8f-8c8c-4b64-968e-c7c9af02c882}; !- HVAC Component

OS:Sizing:Zone,
  {62618db0-37ae-4958-8a35-3d1dbb0ee955}, !- Handle
  {183abb8f-8c8c-4b64-968e-c7c9af02c882}, !- Zone or ZoneList Name
  SupplyAirTemperature,                   !- Zone Cooling Design Supply Air Temperature Input Method
  14,                                     !- Zone Cooling Design Supply Air Temperature {C}
  11.11,                                  !- Zone Cooling Design Supply Air Temperature Difference {deltaC}
  SupplyAirTemperature,                   !- Zone Heating Design Supply Air Temperature Input Method
  40,                                     !- Zone Heating Design Supply Air Temperature {C}
  11.11,                                  !- Zone Heating Design Supply Air Temperature Difference {deltaC}
  0.0085,                                 !- Zone Cooling Design Supply Air Humidity Ratio {kg-H2O/kg-air}
  0.008,                                  !- Zone Heating Design Supply Air Humidity Ratio {kg-H2O/kg-air}
  ,                                       !- Zone Heating Sizing Factor
  ,                                       !- Zone Cooling Sizing Factor
  DesignDay,                              !- Cooling Design Air Flow Method
  ,                                       !- Cooling Design Air Flow Rate {m3/s}
  ,                                       !- Cooling Minimum Air Flow per Zone Floor Area {m3/s-m2}
  ,                                       !- Cooling Minimum Air Flow {m3/s}
  ,                                       !- Cooling Minimum Air Flow Fraction
  DesignDay,                              !- Heating Design Air Flow Method
  ,                                       !- Heating Design Air Flow Rate {m3/s}
  ,                                       !- Heating Maximum Air Flow per Zone Floor Area {m3/s-m2}
  ,                                       !- Heating Maximum Air Flow {m3/s}
  ,                                       !- Heating Maximum Air Flow Fraction
  ,                                       !- Design Zone Air Distribution Effectiveness in Cooling Mode
  ,                                       !- Design Zone Air Distribution Effectiveness in Heating Mode
  No,                                     !- Account for Dedicated Outdoor Air System
  NeutralSupplyAir,                       !- Dedicated Outdoor Air System Control Strategy
  autosize,                               !- Dedicated Outdoor Air Low Setpoint Temperature for Design {C}
  autosize;                               !- Dedicated Outdoor Air High Setpoint Temperature for Design {C}

OS:ZoneHVAC:EquipmentList,
  {732a1baa-4ee3-47a1-b8cc-5251a7a93632}, !- Handle
  Zone HVAC Equipment List 1,             !- Name
  {183abb8f-8c8c-4b64-968e-c7c9af02c882}; !- Thermal Zone

OS:Space,
  {a771f3cb-2141-4121-a779-3315ce2da7d0}, !- Handle
  living space,                           !- Name
  {ca34a083-c4b1-4a1f-b908-8bd7b6f0a3bb}, !- Space Type Name
  ,                                       !- Default Construction Set Name
  ,                                       !- Default Schedule Set Name
  ,                                       !- Direction of Relative North {deg}
  ,                                       !- X Origin {m}
  ,                                       !- Y Origin {m}
  ,                                       !- Z Origin {m}
  ,                                       !- Building Story Name
  {183abb8f-8c8c-4b64-968e-c7c9af02c882}, !- Thermal Zone Name
  ,                                       !- Part of Total Floor Area
  ,                                       !- Design Specification Outdoor Air Object Name
  {0d7bd1f8-3bf7-46cc-be0e-7f9673e2b7a2}; !- Building Unit Name

OS:Surface,
  {271e9f94-d886-4788-a874-f23ba022f7a8}, !- Handle
  Surface 1,                              !- Name
  Floor,                                  !- Surface Type
  ,                                       !- Construction Name
  {a771f3cb-2141-4121-a779-3315ce2da7d0}, !- Space Name
  Surface,                                !- Outside Boundary Condition
  {f7a20b76-a74a-4904-9672-5db42db7a0ab}, !- Outside Boundary Condition Object
  NoSun,                                  !- Sun Exposure
  NoWind,                                 !- Wind Exposure
  ,                                       !- View Factor to Ground
  ,                                       !- Number of Vertices
  0, -9.144, 0,                           !- X,Y,Z Vertex 1 {m}
  0, 0, 0,                                !- X,Y,Z Vertex 2 {m}
  4.572, 0, 0,                            !- X,Y,Z Vertex 3 {m}
  4.572, -9.144, 0;                       !- X,Y,Z Vertex 4 {m}

OS:Surface,
  {6b09234e-63ad-4900-95dc-72f983b244a3}, !- Handle
  Surface 2,                              !- Name
  Wall,                                   !- Surface Type
  ,                                       !- Construction Name
  {a771f3cb-2141-4121-a779-3315ce2da7d0}, !- Space Name
  Outdoors,                               !- Outside Boundary Condition
  ,                                       !- Outside Boundary Condition Object
  SunExposed,                             !- Sun Exposure
  WindExposed,                            !- Wind Exposure
  ,                                       !- View Factor to Ground
  ,                                       !- Number of Vertices
  0, 0, 2.4384,                           !- X,Y,Z Vertex 1 {m}
  0, 0, 0,                                !- X,Y,Z Vertex 2 {m}
  0, -9.144, 0,                           !- X,Y,Z Vertex 3 {m}
  0, -9.144, 2.4384;                      !- X,Y,Z Vertex 4 {m}

OS:Surface,
  {b0072732-a648-4712-837a-be3c492e1628}, !- Handle
  Surface 3,                              !- Name
  Wall,                                   !- Surface Type
  ,                                       !- Construction Name
  {a771f3cb-2141-4121-a779-3315ce2da7d0}, !- Space Name
  Outdoors,                               !- Outside Boundary Condition
  ,                                       !- Outside Boundary Condition Object
  SunExposed,                             !- Sun Exposure
  WindExposed,                            !- Wind Exposure
  ,                                       !- View Factor to Ground
  ,                                       !- Number of Vertices
  4.572, 0, 2.4384,                       !- X,Y,Z Vertex 1 {m}
  4.572, 0, 0,                            !- X,Y,Z Vertex 2 {m}
  0, 0, 0,                                !- X,Y,Z Vertex 3 {m}
  0, 0, 2.4384;                           !- X,Y,Z Vertex 4 {m}

OS:Surface,
  {bef3de8d-03d7-4992-a562-9759793c2f7b}, !- Handle
  Surface 4,                              !- Name
  Wall,                                   !- Surface Type
  ,                                       !- Construction Name
  {a771f3cb-2141-4121-a779-3315ce2da7d0}, !- Space Name
  Surface,                                !- Outside Boundary Condition
  {36c5ca26-fc98-4408-a251-51ac7c23a567}, !- Outside Boundary Condition Object
  NoSun,                                  !- Sun Exposure
  NoWind,                                 !- Wind Exposure
  ,                                       !- View Factor to Ground
  ,                                       !- Number of Vertices
  4.572, -9.144, 2.4384,                  !- X,Y,Z Vertex 1 {m}
  4.572, -9.144, 0,                       !- X,Y,Z Vertex 2 {m}
  4.572, 0, 0,                            !- X,Y,Z Vertex 3 {m}
  4.572, 0, 2.4384;                       !- X,Y,Z Vertex 4 {m}

OS:Surface,
  {202f1ef0-489d-4159-afa6-ed0f9752e3c9}, !- Handle
  Surface 5,                              !- Name
  Wall,                                   !- Surface Type
  ,                                       !- Construction Name
  {a771f3cb-2141-4121-a779-3315ce2da7d0}, !- Space Name
  Outdoors,                               !- Outside Boundary Condition
  ,                                       !- Outside Boundary Condition Object
  SunExposed,                             !- Sun Exposure
  WindExposed,                            !- Wind Exposure
  ,                                       !- View Factor to Ground
  ,                                       !- Number of Vertices
  0, -9.144, 2.4384,                      !- X,Y,Z Vertex 1 {m}
  0, -9.144, 0,                           !- X,Y,Z Vertex 2 {m}
  4.572, -9.144, 0,                       !- X,Y,Z Vertex 3 {m}
  4.572, -9.144, 2.4384;                  !- X,Y,Z Vertex 4 {m}

OS:Surface,
  {099e6ae7-4b04-4482-be1b-932f39dcc58b}, !- Handle
  Surface 6,                              !- Name
  RoofCeiling,                            !- Surface Type
  ,                                       !- Construction Name
  {a771f3cb-2141-4121-a779-3315ce2da7d0}, !- Space Name
  Surface,                                !- Outside Boundary Condition
  {8de88b57-6e48-49ce-ac91-d842cdfe5fb8}, !- Outside Boundary Condition Object
  NoSun,                                  !- Sun Exposure
  NoWind,                                 !- Wind Exposure
  ,                                       !- View Factor to Ground
  ,                                       !- Number of Vertices
  4.572, -9.144, 2.4384,                  !- X,Y,Z Vertex 1 {m}
  4.572, 0, 2.4384,                       !- X,Y,Z Vertex 2 {m}
  0, 0, 2.4384,                           !- X,Y,Z Vertex 3 {m}
  0, -9.144, 2.4384;                      !- X,Y,Z Vertex 4 {m}

OS:SpaceType,
  {ca34a083-c4b1-4a1f-b908-8bd7b6f0a3bb}, !- Handle
  Space Type 1,                           !- Name
  ,                                       !- Default Construction Set Name
  ,                                       !- Default Schedule Set Name
  ,                                       !- Group Rendering Name
  ,                                       !- Design Specification Outdoor Air Object Name
  ,                                       !- Standards Template
  ,                                       !- Standards Building Type
  living;                                 !- Standards Space Type

OS:ThermalZone,
  {234ece13-6fd0-4d22-b32c-782f739290e1}, !- Handle
  living zone|unit 2,                     !- Name
  ,                                       !- Multiplier
  ,                                       !- Ceiling Height {m}
  ,                                       !- Volume {m3}
  ,                                       !- Floor Area {m2}
  ,                                       !- Zone Inside Convection Algorithm
  ,                                       !- Zone Outside Convection Algorithm
  ,                                       !- Zone Conditioning Equipment List Name
  {f224da6a-7c03-4486-aec9-7294a977a800}, !- Zone Air Inlet Port List
  {84c87cec-b3c7-490c-8373-d1da53d9edb1}, !- Zone Air Exhaust Port List
  {9f798d7c-3a52-489a-b0f5-46c568eefa4e}, !- Zone Air Node Name
  {2daf96ce-79b1-4008-a307-504004f96a7f}, !- Zone Return Air Port List
  ,                                       !- Primary Daylighting Control Name
  ,                                       !- Fraction of Zone Controlled by Primary Daylighting Control
  ,                                       !- Secondary Daylighting Control Name
  ,                                       !- Fraction of Zone Controlled by Secondary Daylighting Control
  ,                                       !- Illuminance Map Name
  ,                                       !- Group Rendering Name
  ,                                       !- Thermostat Name
  No;                                     !- Use Ideal Air Loads

OS:Node,
  {79d6f44b-829c-43b2-96e1-c6f9af6e1976}, !- Handle
  Node 2,                                 !- Name
  {9f798d7c-3a52-489a-b0f5-46c568eefa4e}, !- Inlet Port
  ;                                       !- Outlet Port

OS:Connection,
  {9f798d7c-3a52-489a-b0f5-46c568eefa4e}, !- Handle
  {19d851b6-5836-4d66-bd69-f842c74d079c}, !- Name
  {234ece13-6fd0-4d22-b32c-782f739290e1}, !- Source Object
  11,                                     !- Outlet Port
  {79d6f44b-829c-43b2-96e1-c6f9af6e1976}, !- Target Object
  2;                                      !- Inlet Port

OS:PortList,
  {f224da6a-7c03-4486-aec9-7294a977a800}, !- Handle
  {b682dd4a-b750-48e4-b838-03fa156b00ea}, !- Name
  {234ece13-6fd0-4d22-b32c-782f739290e1}; !- HVAC Component

OS:PortList,
  {84c87cec-b3c7-490c-8373-d1da53d9edb1}, !- Handle
  {86c2388c-a320-4302-862f-0c8e19e17112}, !- Name
  {234ece13-6fd0-4d22-b32c-782f739290e1}; !- HVAC Component

OS:PortList,
  {2daf96ce-79b1-4008-a307-504004f96a7f}, !- Handle
  {ccba79dd-0f26-4f17-8e4a-05ab5132840d}, !- Name
  {234ece13-6fd0-4d22-b32c-782f739290e1}; !- HVAC Component

OS:Sizing:Zone,
  {080c942c-eeee-490a-9fa4-6c24b1b40c9f}, !- Handle
  {234ece13-6fd0-4d22-b32c-782f739290e1}, !- Zone or ZoneList Name
  SupplyAirTemperature,                   !- Zone Cooling Design Supply Air Temperature Input Method
  14,                                     !- Zone Cooling Design Supply Air Temperature {C}
  11.11,                                  !- Zone Cooling Design Supply Air Temperature Difference {deltaC}
  SupplyAirTemperature,                   !- Zone Heating Design Supply Air Temperature Input Method
  40,                                     !- Zone Heating Design Supply Air Temperature {C}
  11.11,                                  !- Zone Heating Design Supply Air Temperature Difference {deltaC}
  0.0085,                                 !- Zone Cooling Design Supply Air Humidity Ratio {kg-H2O/kg-air}
  0.008,                                  !- Zone Heating Design Supply Air Humidity Ratio {kg-H2O/kg-air}
  ,                                       !- Zone Heating Sizing Factor
  ,                                       !- Zone Cooling Sizing Factor
  DesignDay,                              !- Cooling Design Air Flow Method
  ,                                       !- Cooling Design Air Flow Rate {m3/s}
  ,                                       !- Cooling Minimum Air Flow per Zone Floor Area {m3/s-m2}
  ,                                       !- Cooling Minimum Air Flow {m3/s}
  ,                                       !- Cooling Minimum Air Flow Fraction
  DesignDay,                              !- Heating Design Air Flow Method
  ,                                       !- Heating Design Air Flow Rate {m3/s}
  ,                                       !- Heating Maximum Air Flow per Zone Floor Area {m3/s-m2}
  ,                                       !- Heating Maximum Air Flow {m3/s}
  ,                                       !- Heating Maximum Air Flow Fraction
  ,                                       !- Design Zone Air Distribution Effectiveness in Cooling Mode
  ,                                       !- Design Zone Air Distribution Effectiveness in Heating Mode
  No,                                     !- Account for Dedicated Outdoor Air System
  NeutralSupplyAir,                       !- Dedicated Outdoor Air System Control Strategy
  autosize,                               !- Dedicated Outdoor Air Low Setpoint Temperature for Design {C}
  autosize;                               !- Dedicated Outdoor Air High Setpoint Temperature for Design {C}

OS:ZoneHVAC:EquipmentList,
  {571b36c5-94ed-4054-b202-47f1b57e5e68}, !- Handle
  Zone HVAC Equipment List 2,             !- Name
  {234ece13-6fd0-4d22-b32c-782f739290e1}; !- Thermal Zone

OS:Space,
  {05e2dac8-d329-4164-9873-4a6a3c5119b6}, !- Handle
  living space|unit 2|story 1,            !- Name
  {ca34a083-c4b1-4a1f-b908-8bd7b6f0a3bb}, !- Space Type Name
  ,                                       !- Default Construction Set Name
  ,                                       !- Default Schedule Set Name
  -0,                                     !- Direction of Relative North {deg}
  0,                                      !- X Origin {m}
  0,                                      !- Y Origin {m}
  0,                                      !- Z Origin {m}
  ,                                       !- Building Story Name
  {234ece13-6fd0-4d22-b32c-782f739290e1}, !- Thermal Zone Name
  ,                                       !- Part of Total Floor Area
  ,                                       !- Design Specification Outdoor Air Object Name
  {3b480f51-7c77-4cd1-83a8-f7a6846923d9}; !- Building Unit Name

OS:Surface,
  {7623ffa9-77b4-4b11-890c-174eae433ed0}, !- Handle
  Surface 12,                             !- Name
  Wall,                                   !- Surface Type
  ,                                       !- Construction Name
  {05e2dac8-d329-4164-9873-4a6a3c5119b6}, !- Space Name
  Surface,                                !- Outside Boundary Condition
  {5eeba899-a3a9-477a-bd0e-248e6da17718}, !- Outside Boundary Condition Object
  NoSun,                                  !- Sun Exposure
  NoWind,                                 !- Wind Exposure
  ,                                       !- View Factor to Ground
  ,                                       !- Number of Vertices
  9.144, -9.144, 2.4384,                  !- X,Y,Z Vertex 1 {m}
  9.144, -9.144, 0,                       !- X,Y,Z Vertex 2 {m}
  9.144, 0, 0,                            !- X,Y,Z Vertex 3 {m}
  9.144, 0, 2.4384;                       !- X,Y,Z Vertex 4 {m}

OS:Surface,
  {832abd68-d9a4-4c10-9835-d6baf0b43d51}, !- Handle
  Surface 13,                             !- Name
  RoofCeiling,                            !- Surface Type
  ,                                       !- Construction Name
  {05e2dac8-d329-4164-9873-4a6a3c5119b6}, !- Space Name
  Surface,                                !- Outside Boundary Condition
  {13a2dbba-fcf9-4378-9991-4f944ea7c115}, !- Outside Boundary Condition Object
  NoSun,                                  !- Sun Exposure
  NoWind,                                 !- Wind Exposure
  ,                                       !- View Factor to Ground
  ,                                       !- Number of Vertices
  9.144, -9.144, 2.4384,                  !- X,Y,Z Vertex 1 {m}
  9.144, 0, 2.4384,                       !- X,Y,Z Vertex 2 {m}
  4.572, 0, 2.4384,                       !- X,Y,Z Vertex 3 {m}
  4.572, -9.144, 2.4384;                  !- X,Y,Z Vertex 4 {m}

OS:Surface,
  {cc0c6425-5b91-4aa0-91f0-fac9eb8febd3}, !- Handle
  Surface 14,                             !- Name
  Floor,                                  !- Surface Type
  ,                                       !- Construction Name
  {05e2dac8-d329-4164-9873-4a6a3c5119b6}, !- Space Name
  Surface,                                !- Outside Boundary Condition
  {5aad3018-5ff3-4fb3-bec1-7ecb793b958c}, !- Outside Boundary Condition Object
  NoSun,                                  !- Sun Exposure
  NoWind,                                 !- Wind Exposure
  ,                                       !- View Factor to Ground
  ,                                       !- Number of Vertices
  4.572, -9.144, 0,                       !- X,Y,Z Vertex 1 {m}
  4.572, 0, 0,                            !- X,Y,Z Vertex 2 {m}
  9.144, 0, 0,                            !- X,Y,Z Vertex 3 {m}
  9.144, -9.144, 0;                       !- X,Y,Z Vertex 4 {m}

OS:Surface,
  {36c5ca26-fc98-4408-a251-51ac7c23a567}, !- Handle
  Surface 15,                             !- Name
  Wall,                                   !- Surface Type
  ,                                       !- Construction Name
  {05e2dac8-d329-4164-9873-4a6a3c5119b6}, !- Space Name
  Surface,                                !- Outside Boundary Condition
  {bef3de8d-03d7-4992-a562-9759793c2f7b}, !- Outside Boundary Condition Object
  NoSun,                                  !- Sun Exposure
  NoWind,                                 !- Wind Exposure
  ,                                       !- View Factor to Ground
  ,                                       !- Number of Vertices
  4.572, 0, 2.4384,                       !- X,Y,Z Vertex 1 {m}
  4.572, 0, 0,                            !- X,Y,Z Vertex 2 {m}
  4.572, -9.144, 0,                       !- X,Y,Z Vertex 3 {m}
  4.572, -9.144, 2.4384;                  !- X,Y,Z Vertex 4 {m}

OS:Surface,
  {a3bd5a1d-4ae6-4b1b-b3fc-6461febdcea0}, !- Handle
  Surface 16,                             !- Name
  Wall,                                   !- Surface Type
  ,                                       !- Construction Name
  {05e2dac8-d329-4164-9873-4a6a3c5119b6}, !- Space Name
  Outdoors,                               !- Outside Boundary Condition
  ,                                       !- Outside Boundary Condition Object
  SunExposed,                             !- Sun Exposure
  WindExposed,                            !- Wind Exposure
  ,                                       !- View Factor to Ground
  ,                                       !- Number of Vertices
  9.144, 0, 2.4384,                       !- X,Y,Z Vertex 1 {m}
  9.144, 0, 0,                            !- X,Y,Z Vertex 2 {m}
  4.572, 0, 0,                            !- X,Y,Z Vertex 3 {m}
  4.572, 0, 2.4384;                       !- X,Y,Z Vertex 4 {m}

OS:Surface,
  {994d70b6-0708-4c7c-9b66-ccf433198ffb}, !- Handle
  Surface 17,                             !- Name
  Wall,                                   !- Surface Type
  ,                                       !- Construction Name
  {05e2dac8-d329-4164-9873-4a6a3c5119b6}, !- Space Name
  Outdoors,                               !- Outside Boundary Condition
  ,                                       !- Outside Boundary Condition Object
  SunExposed,                             !- Sun Exposure
  WindExposed,                            !- Wind Exposure
  ,                                       !- View Factor to Ground
  ,                                       !- Number of Vertices
  4.572, -9.144, 2.4384,                  !- X,Y,Z Vertex 1 {m}
  4.572, -9.144, 0,                       !- X,Y,Z Vertex 2 {m}
  9.144, -9.144, 0,                       !- X,Y,Z Vertex 3 {m}
  9.144, -9.144, 2.4384;                  !- X,Y,Z Vertex 4 {m}

OS:ThermalZone,
  {2b8267b4-3166-4f6b-923c-474ccf2de9ac}, !- Handle
  living zone|unit 3,                     !- Name
  ,                                       !- Multiplier
  ,                                       !- Ceiling Height {m}
  ,                                       !- Volume {m3}
  ,                                       !- Floor Area {m2}
  ,                                       !- Zone Inside Convection Algorithm