!- NOTE: Auto-generated from /test/osw_files/SFD_2000sqft_2story_FB_GRG_UA_3Beds_2Baths_Denver.osw

OS:Version,
  {9c9d3c12-f642-41b9-82f6-8a1a6e7a64a5}, !- Handle
  2.7.0;                                  !- Version Identifier

OS:Building,
  {c7fb3670-8758-4b29-ad65-75257de3aa18}, !- Handle
  Building 1,                             !- Name
  ,                                       !- Building Sector Type
  0,                                      !- North Axis {deg}
  ,                                       !- Nominal Floor to Floor Height {m}
  ,                                       !- Space Type Name
  ,                                       !- Default Construction Set Name
  ,                                       !- Default Schedule Set Name
  3,                                      !- Standards Number of Stories
  2,                                      !- Standards Number of Above Ground Stories
  ,                                       !- Standards Template
  singlefamilydetached,                   !- Standards Building Type
  1;                                      !- Standards Number of Living Units

OS:Facility,
  {51b334dd-3412-4747-84e6-ac075f259446}; !- Handle

OS:Site,
  {7492fb64-36a5-4e10-886b-e287fe8c9020}, !- Handle
  Denver Intl Ap_CO_USA,                  !- Name
  39.83,                                  !- Latitude {deg}
  -104.65,                                !- Longitude {deg}
  -7,                                     !- Time Zone {hr}
  1650,                                   !- Elevation {m}
  ;                                       !- Terrain

OS:SimulationControl,
  {84619d23-3d5f-420e-a5ad-683eee09650b}, !- Handle
  ,                                       !- Do Zone Sizing Calculation
  ,                                       !- Do System Sizing Calculation
  ,                                       !- Do Plant Sizing Calculation
  No;                                     !- Run Simulation for Sizing Periods

OS:Sizing:Parameters,
  {c0016e81-034a-4f2c-b8d4-5c1e0a2e6118}, !- Handle
  1.25,                                   !- Heating Sizing Factor
  1.15;                                   !- Cooling Sizing Factor

OS:Timestep,
  {f0fcaed1-8ec7-4704-aef6-1610f91f42fb}, !- Handle
  6;                                      !- Number of Timesteps per Hour

OS:ShadowCalculation,
  {991e2f5f-436f-46b4-a96b-bf8445cec0ea}, !- Handle
  20,                                     !- Calculation Frequency
  200;                                    !- Maximum Figures in Shadow Overlap Calculations

OS:HeatBalanceAlgorithm,
  {7c6f5c25-b774-4535-9d38-5f406ec64b7c}, !- Handle
  ConductionTransferFunction,             !- Algorithm
  200;                                    !- Surface Temperature Upper Limit {C}

OS:RunPeriod,
  {08a6b88c-fad2-4ab6-a5be-c97fff2d2e33}, !- Handle
  Run Period 1,                           !- Name
  1,                                      !- Begin Month
  1,                                      !- Begin Day of Month
  12,                                     !- End Month
  31,                                     !- End Day of Month
  ,                                       !- Use Weather File Holidays and Special Days
  ,                                       !- Use Weather File Daylight Saving Period
  ,                                       !- Apply Weekend Holiday Rule
  ,                                       !- Use Weather File Rain Indicators
  ,                                       !- Use Weather File Snow Indicators
  ;                                       !- Number of Times Runperiod to be Repeated

OS:LifeCycleCost:Parameters,
  {658f42bb-630e-4331-9af5-0e125b3c4530}, !- Handle
  ,                                       !- Analysis Type
  ,                                       !- Discounting Convention
  ,                                       !- Inflation Approach
  ,                                       !- Real Discount Rate
  ,                                       !- Nominal Discount Rate
  ,                                       !- Inflation
  ,                                       !- Base Date Month
  ,                                       !- Base Date Year
  ,                                       !- Service Date Month
  ,                                       !- Service Date Year
  ;                                       !- Length of Study Period in Years

OS:SurfaceConvectionAlgorithm:Outside,
  {30a917f6-ccec-4e50-9ed6-e0eb9290ca5c}, !- Handle
  DOE-2;                                  !- Algorithm

OS:SurfaceConvectionAlgorithm:Inside,
  {ff980a6f-190c-454f-ae4a-8eea80dec00d}, !- Handle
  TARP;                                   !- Algorithm

OS:ZoneCapacitanceMultiplier:ResearchSpecial,
  {d6b23758-93a1-4515-a232-a7763034cfa2}, !- Handle
  ,                                       !- Temperature Capacity Multiplier
  15,                                     !- Humidity Capacity Multiplier
  ;                                       !- Carbon Dioxide Capacity Multiplier

OS:ThermalZone,
  {0149e7ea-d10d-4a9d-91bd-026705c9ed3a}, !- Handle
  living zone,                            !- Name
  ,                                       !- Multiplier
  ,                                       !- Ceiling Height {m}
  ,                                       !- Volume {m3}
  ,                                       !- Floor Area {m2}
  ,                                       !- Zone Inside Convection Algorithm
  ,                                       !- Zone Outside Convection Algorithm
  ,                                       !- Zone Conditioning Equipment List Name
  {4271ea34-e10b-465a-ba93-5155678e7fbf}, !- Zone Air Inlet Port List
  {a79b079d-774f-4309-8212-7cc51c5eeed8}, !- Zone Air Exhaust Port List
  {718bd857-8a34-4a9e-a04c-50d7cf3e5db2}, !- Zone Air Node Name
  {b23ba961-4f84-4a36-bb06-6c84be596742}, !- Zone Return Air Port List
  ,                                       !- Primary Daylighting Control Name
  ,                                       !- Fraction of Zone Controlled by Primary Daylighting Control
  ,                                       !- Secondary Daylighting Control Name
  ,                                       !- Fraction of Zone Controlled by Secondary Daylighting Control
  ,                                       !- Illuminance Map Name
  ,                                       !- Group Rendering Name
  ,                                       !- Thermostat Name
  No;                                     !- Use Ideal Air Loads

OS:Node,
  {3c8d4563-c668-44b0-8cf8-2b2e7be26026}, !- Handle
  Node 1,                                 !- Name
  {718bd857-8a34-4a9e-a04c-50d7cf3e5db2}, !- Inlet Port
  ;                                       !- Outlet Port

OS:Connection,
  {718bd857-8a34-4a9e-a04c-50d7cf3e5db2}, !- Handle
  {8a0fd5f6-3ce2-43db-8f5c-5e34f6a27ec2}, !- Name
  {0149e7ea-d10d-4a9d-91bd-026705c9ed3a}, !- Source Object
  11,                                     !- Outlet Port
  {3c8d4563-c668-44b0-8cf8-2b2e7be26026}, !- Target Object
  2;                                      !- Inlet Port

OS:PortList,
  {4271ea34-e10b-465a-ba93-5155678e7fbf}, !- Handle
  {17c30f27-1f23-470f-8128-f9dd1182d46c}, !- Name
  {0149e7ea-d10d-4a9d-91bd-026705c9ed3a}; !- HVAC Component

OS:PortList,
  {a79b079d-774f-4309-8212-7cc51c5eeed8}, !- Handle
  {39ea4c60-2048-4e88-8572-a232c1fcbc18}, !- Name
  {0149e7ea-d10d-4a9d-91bd-026705c9ed3a}; !- HVAC Component

OS:PortList,
  {b23ba961-4f84-4a36-bb06-6c84be596742}, !- Handle
  {b6da3ce6-c3fe-4322-8e4a-da1fb89db063}, !- Name
  {0149e7ea-d10d-4a9d-91bd-026705c9ed3a}; !- HVAC Component

OS:Sizing:Zone,
  {d59bc641-fa5e-4a9c-a524-51fb4a77b9b9}, !- Handle
  {0149e7ea-d10d-4a9d-91bd-026705c9ed3a}, !- Zone or ZoneList Name
  SupplyAirTemperature,                   !- Zone Cooling Design Supply Air Temperature Input Method
  14,                                     !- Zone Cooling Design Supply Air Temperature {C}
  11.11,                                  !- Zone Cooling Design Supply Air Temperature Difference {deltaC}
  SupplyAirTemperature,                   !- Zone Heating Design Supply Air Temperature Input Method
  40,                                     !- Zone Heating Design Supply Air Temperature {C}
  11.11,                                  !- Zone Heating Design Supply Air Temperature Difference {deltaC}
  0.0085,                                 !- Zone Cooling Design Supply Air Humidity Ratio {kg-H2O/kg-air}
  0.008,                                  !- Zone Heating Design Supply Air Humidity Ratio {kg-H2O/kg-air}
  ,                                       !- Zone Heating Sizing Factor
  ,                                       !- Zone Cooling Sizing Factor
  DesignDay,                              !- Cooling Design Air Flow Method
  ,                                       !- Cooling Design Air Flow Rate {m3/s}
  ,                                       !- Cooling Minimum Air Flow per Zone Floor Area {m3/s-m2}
  ,                                       !- Cooling Minimum Air Flow {m3/s}
  ,                                       !- Cooling Minimum Air Flow Fraction
  DesignDay,                              !- Heating Design Air Flow Method
  ,                                       !- Heating Design Air Flow Rate {m3/s}
  ,                                       !- Heating Maximum Air Flow per Zone Floor Area {m3/s-m2}
  ,                                       !- Heating Maximum Air Flow {m3/s}
  ,                                       !- Heating Maximum Air Flow Fraction
  ,                                       !- Design Zone Air Distribution Effectiveness in Cooling Mode
  ,                                       !- Design Zone Air Distribution Effectiveness in Heating Mode
  No,                                     !- Account for Dedicated Outdoor Air System
  NeutralSupplyAir,                       !- Dedicated Outdoor Air System Control Strategy
  autosize,                               !- Dedicated Outdoor Air Low Setpoint Temperature for Design {C}
  autosize;                               !- Dedicated Outdoor Air High Setpoint Temperature for Design {C}

OS:ZoneHVAC:EquipmentList,
  {4b5a9ee8-3e46-49c6-a12b-c96d2d785354}, !- Handle
  Zone HVAC Equipment List 1,             !- Name
  {0149e7ea-d10d-4a9d-91bd-026705c9ed3a}; !- Thermal Zone

OS:ThermalZone,
  {7e8aa7c6-8676-4ac0-bea9-5b3e9c941e47}, !- Handle
  garage zone,                            !- Name
  ,                                       !- Multiplier
  ,                                       !- Ceiling Height {m}
  ,                                       !- Volume {m3}
  ,                                       !- Floor Area {m2}
  ,                                       !- Zone Inside Convection Algorithm
  ,                                       !- Zone Outside Convection Algorithm
  ,                                       !- Zone Conditioning Equipment List Name
  {3ccc5e8f-d68f-4d06-85bd-3c9de6aceeba}, !- Zone Air Inlet Port List
  {696f285e-d6f4-49a7-806f-2fd22d954c6b}, !- Zone Air Exhaust Port List
  {c63b5434-a450-4e20-86fb-ccc8634c63a9}, !- Zone Air Node Name
  {47c74f9e-79d8-4225-9404-4c5164568350}, !- Zone Return Air Port List
  ,                                       !- Primary Daylighting Control Name
  ,                                       !- Fraction of Zone Controlled by Primary Daylighting Control
  ,                                       !- Secondary Daylighting Control Name
  ,                                       !- Fraction of Zone Controlled by Secondary Daylighting Control
  ,                                       !- Illuminance Map Name
  ,                                       !- Group Rendering Name
  ,                                       !- Thermostat Name
  No;                                     !- Use Ideal Air Loads

OS:Node,
  {efee7a47-d309-47c4-bdfb-7c01dfc27028}, !- Handle
  Node 2,                                 !- Name
  {c63b5434-a450-4e20-86fb-ccc8634c63a9}, !- Inlet Port
  ;                                       !- Outlet Port

OS:Connection,
  {c63b5434-a450-4e20-86fb-ccc8634c63a9}, !- Handle
  {10041b7c-acc9-48c2-8a94-7272d71afa29}, !- Name
  {7e8aa7c6-8676-4ac0-bea9-5b3e9c941e47}, !- Source Object
  11,                                     !- Outlet Port
  {efee7a47-d309-47c4-bdfb-7c01dfc27028}, !- Target Object
  2;                                      !- Inlet Port

OS:PortList,
  {3ccc5e8f-d68f-4d06-85bd-3c9de6aceeba}, !- Handle
  {1f8a618e-99f5-421f-a9c1-0934ac2373fc}, !- Name
  {7e8aa7c6-8676-4ac0-bea9-5b3e9c941e47}; !- HVAC Component

OS:PortList,
  {696f285e-d6f4-49a7-806f-2fd22d954c6b}, !- Handle
  {a9d7caa4-63ff-4399-95d3-9e5f9c98cbd6}, !- Name
  {7e8aa7c6-8676-4ac0-bea9-5b3e9c941e47}; !- HVAC Component

OS:PortList,
  {47c74f9e-79d8-4225-9404-4c5164568350}, !- Handle
  {44950cc4-cb28-4374-815e-448ed60722be}, !- Name
  {7e8aa7c6-8676-4ac0-bea9-5b3e9c941e47}; !- HVAC Component

OS:Sizing:Zone,
  {bf00967d-cc6f-42c7-b6d8-a0bbcc79c71d}, !- Handle
  {7e8aa7c6-8676-4ac0-bea9-5b3e9c941e47}, !- Zone or ZoneList Name
  SupplyAirTemperature,                   !- Zone Cooling Design Supply Air Temperature Input Method
  14,                                     !- Zone Cooling Design Supply Air Temperature {C}
  11.11,                                  !- Zone Cooling Design Supply Air Temperature Difference {deltaC}
  SupplyAirTemperature,                   !- Zone Heating Design Supply Air Temperature Input Method
  40,                                     !- Zone Heating Design Supply Air Temperature {C}
  11.11,                                  !- Zone Heating Design Supply Air Temperature Difference {deltaC}
  0.0085,                                 !- Zone Cooling Design Supply Air Humidity Ratio {kg-H2O/kg-air}
  0.008,                                  !- Zone Heating Design Supply Air Humidity Ratio {kg-H2O/kg-air}
  ,                                       !- Zone Heating Sizing Factor
  ,                                       !- Zone Cooling Sizing Factor
  DesignDay,                              !- Cooling Design Air Flow Method
  ,                                       !- Cooling Design Air Flow Rate {m3/s}
  ,                                       !- Cooling Minimum Air Flow per Zone Floor Area {m3/s-m2}
  ,                                       !- Cooling Minimum Air Flow {m3/s}
  ,                                       !- Cooling Minimum Air Flow Fraction
  DesignDay,                              !- Heating Design Air Flow Method
  ,                                       !- Heating Design Air Flow Rate {m3/s}
  ,                                       !- Heating Maximum Air Flow per Zone Floor Area {m3/s-m2}
  ,                                       !- Heating Maximum Air Flow {m3/s}
  ,                                       !- Heating Maximum Air Flow Fraction
  ,                                       !- Design Zone Air Distribution Effectiveness in Cooling Mode
  ,                                       !- Design Zone Air Distribution Effectiveness in Heating Mode
  No,                                     !- Account for Dedicated Outdoor Air System
  NeutralSupplyAir,                       !- Dedicated Outdoor Air System Control Strategy
  autosize,                               !- Dedicated Outdoor Air Low Setpoint Temperature for Design {C}
  autosize;                               !- Dedicated Outdoor Air High Setpoint Temperature for Design {C}

OS:ZoneHVAC:EquipmentList,
  {b58686b6-839f-4c95-a36f-efd27a9b8e3f}, !- Handle
  Zone HVAC Equipment List 2,             !- Name
  {7e8aa7c6-8676-4ac0-bea9-5b3e9c941e47}; !- Thermal Zone

OS:Space,
  {144a142d-6515-4b11-b014-fc61c68ae35e}, !- Handle
  garage space,                           !- Name
  {d70d64d7-a723-49c2-b41f-3ede7e516944}, !- Space Type Name
  ,                                       !- Default Construction Set Name
  ,                                       !- Default Schedule Set Name
  -0,                                     !- Direction of Relative North {deg}
  0,                                      !- X Origin {m}
  0,                                      !- Y Origin {m}
  0,                                      !- Z Origin {m}
  ,                                       !- Building Story Name
  {7e8aa7c6-8676-4ac0-bea9-5b3e9c941e47}; !- Thermal Zone Name

OS:Surface,
  {16377243-b246-48e7-90ca-e9e9dfbdc3fa}, !- Handle
  Surface 1,                              !- Name
  Floor,                                  !- Surface Type
  ,                                       !- Construction Name
  {144a142d-6515-4b11-b014-fc61c68ae35e}, !- Space Name
  Foundation,                             !- Outside Boundary Condition
  ,                                       !- Outside Boundary Condition Object
  NoSun,                                  !- Sun Exposure
  NoWind,                                 !- Wind Exposure
  ,                                       !- View Factor to Ground
  ,                                       !- Number of Vertices
  5.57695129776527, -3.048, 0,            !- X,Y,Z Vertex 1 {m}
  5.57695129776527, 3.048, 0,             !- X,Y,Z Vertex 2 {m}
  11.6729512977653, 3.048, 0,             !- X,Y,Z Vertex 3 {m}
  11.6729512977653, -3.048, 0;            !- X,Y,Z Vertex 4 {m}

OS:Surface,
  {6404552f-1bf3-445e-8523-1bf50cf97b88}, !- Handle
  Surface 2,                              !- Name
  Wall,                                   !- Surface Type
  ,                                       !- Construction Name
  {144a142d-6515-4b11-b014-fc61c68ae35e}, !- Space Name
  Surface,                                !- Outside Boundary Condition
  {b9be8f11-b4e6-46cd-9d85-f422a97fee2b}, !- Outside Boundary Condition Object
  NoSun,                                  !- Sun Exposure
  NoWind,                                 !- Wind Exposure
  ,                                       !- View Factor to Ground
  ,                                       !- Number of Vertices
  5.57695129776527, 3.048, 2.4384,        !- X,Y,Z Vertex 1 {m}
  5.57695129776527, 3.048, 0,             !- X,Y,Z Vertex 2 {m}
  5.57695129776527, 0, 0,                 !- X,Y,Z Vertex 3 {m}
  5.57695129776527, 0, 2.4384;            !- X,Y,Z Vertex 4 {m}

OS:Surface,
  {6ae6ffb8-35dc-4673-9479-8b47f89e2962}, !- Handle
  Surface 3,                              !- Name
  Wall,                                   !- Surface Type
  ,                                       !- Construction Name
  {144a142d-6515-4b11-b014-fc61c68ae35e}, !- Space Name
  Surface,                                !- Outside Boundary Condition
  {df9f8709-6312-4014-ae6e-f03185edefe0}, !- Outside Boundary Condition Object
  NoSun,                                  !- Sun Exposure
  NoWind,                                 !- Wind Exposure
  ,                                       !- View Factor to Ground
  ,                                       !- Number of Vertices
  11.6729512977653, 3.048, 2.4384,        !- X,Y,Z Vertex 1 {m}
  11.6729512977653, 3.048, 0,             !- X,Y,Z Vertex 2 {m}
  5.57695129776527, 3.048, 0,             !- X,Y,Z Vertex 3 {m}
  5.57695129776527, 3.048, 2.4384;        !- X,Y,Z Vertex 4 {m}

OS:Surface,
  {00d66b6b-1ab3-4fd7-a32b-6a1c58ccf00f}, !- Handle
  Surface 4,                              !- Name
  Wall,                                   !- Surface Type
  ,                                       !- Construction Name
  {144a142d-6515-4b11-b014-fc61c68ae35e}, !- Space Name
  Outdoors,                               !- Outside Boundary Condition
  ,                                       !- Outside Boundary Condition Object
  SunExposed,                             !- Sun Exposure
  WindExposed,                            !- Wind Exposure
  ,                                       !- View Factor to Ground
  ,                                       !- Number of Vertices
  11.6729512977653, -3.048, 2.4384,       !- X,Y,Z Vertex 1 {m}
  11.6729512977653, -3.048, 0,            !- X,Y,Z Vertex 2 {m}
  11.6729512977653, 3.048, 0,             !- X,Y,Z Vertex 3 {m}
  11.6729512977653, 3.048, 2.4384;        !- X,Y,Z Vertex 4 {m}

OS:Surface,
  {83cfc142-4f47-4861-92f4-f9d9f337c276}, !- Handle
  Surface 5,                              !- Name
  Wall,                                   !- Surface Type
  ,                                       !- Construction Name
  {144a142d-6515-4b11-b014-fc61c68ae35e}, !- Space Name
  Outdoors,                               !- Outside Boundary Condition
  ,                                       !- Outside Boundary Condition Object
  SunExposed,                             !- Sun Exposure
  WindExposed,                            !- Wind Exposure
  ,                                       !- View Factor to Ground
  ,                                       !- Number of Vertices
  5.57695129776527, -3.048, 2.4384,       !- X,Y,Z Vertex 1 {m}
  5.57695129776527, -3.048, 0,            !- X,Y,Z Vertex 2 {m}
  11.6729512977653, -3.048, 0,            !- X,Y,Z Vertex 3 {m}
  11.6729512977653, -3.048, 2.4384;       !- X,Y,Z Vertex 4 {m}

OS:Surface,
  {8c01cbd2-b3e3-4609-ad9a-2e773065a6d1}, !- Handle
  Surface 6,                              !- Name
  RoofCeiling,                            !- Surface Type
  ,                                       !- Construction Name
  {144a142d-6515-4b11-b014-fc61c68ae35e}, !- Space Name
  Surface,                                !- Outside Boundary Condition
  {607a7765-8cb7-4416-9d2b-05a55fefcf64}, !- Outside Boundary Condition Object
  NoSun,                                  !- Sun Exposure
  NoWind,                                 !- Wind Exposure
  ,                                       !- View Factor to Ground
  ,                                       !- Number of Vertices
  11.6729512977653, -3.048, 2.4384,       !- X,Y,Z Vertex 1 {m}
  11.6729512977653, 3.048, 2.4384,        !- X,Y,Z Vertex 2 {m}
  5.57695129776527, 3.048, 2.4384,        !- X,Y,Z Vertex 3 {m}
  5.57695129776527, -3.048, 2.4384;       !- X,Y,Z Vertex 4 {m}

OS:SpaceType,
  {d70d64d7-a723-49c2-b41f-3ede7e516944}, !- Handle
  Space Type 1,                           !- Name
  ,                                       !- Default Construction Set Name
  ,                                       !- Default Schedule Set Name
  ,                                       !- Group Rendering Name
  ,                                       !- Design Specification Outdoor Air Object Name
  ,                                       !- Standards Template
  ,                                       !- Standards Building Type
  garage;                                 !- Standards Space Type

OS:Space,
  {79a47614-832b-4540-b4ab-dc31f4b496dc}, !- Handle
  living space,                           !- Name
  {a713e21b-8226-4613-9cce-3151947cd534}, !- Space Type Name
  ,                                       !- Default Construction Set Name
  ,                                       !- Default Schedule Set Name
  -0,                                     !- Direction of Relative North {deg}
  0,                                      !- X Origin {m}
  0,                                      !- Y Origin {m}
  0,                                      !- Z Origin {m}
  ,                                       !- Building Story Name
  {0149e7ea-d10d-4a9d-91bd-026705c9ed3a}, !- Thermal Zone Name
  ,                                       !- Part of Total Floor Area
  ,                                       !- Design Specification Outdoor Air Object Name
  {8dcda020-58f2-48f0-8fd3-2962b6cc40d4}; !- Building Unit Name

OS:Surface,
  {25d38c25-3f7b-419c-947c-27b9510ce406}, !- Handle
  Surface 7,                              !- Name
  Floor,                                  !- Surface Type
  ,                                       !- Construction Name
  {79a47614-832b-4540-b4ab-dc31f4b496dc}, !- Space Name
  Surface,                                !- Outside Boundary Condition
  {3ae1d04d-e94a-4c3f-abbe-1716b9c1d229}, !- Outside Boundary Condition Object
  NoSun,                                  !- Sun Exposure
  NoWind,                                 !- Wind Exposure
  ,                                       !- View Factor to Ground
  ,                                       !- Number of Vertices
  0, 0, 0,                                !- X,Y,Z Vertex 1 {m}
  0, 5.83647564888264, 0,                 !- X,Y,Z Vertex 2 {m}
  11.6729512977653, 5.83647564888264, 0,  !- X,Y,Z Vertex 3 {m}
  11.6729512977653, 3.048, 0,             !- X,Y,Z Vertex 4 {m}
  5.57695129776527, 3.048, 0,             !- X,Y,Z Vertex 5 {m}
  5.57695129776527, 0, 0;                 !- X,Y,Z Vertex 6 {m}

OS:Surface,
  {745d5965-4a25-41e5-809b-2e3ff8cc9d98}, !- Handle
  Surface 8,                              !- Name
  Wall,                                   !- Surface Type
  ,                                       !- Construction Name
  {79a47614-832b-4540-b4ab-dc31f4b496dc}, !- Space Name
  Outdoors,                               !- Outside Boundary Condition
  ,                                       !- Outside Boundary Condition Object
  SunExposed,                             !- Sun Exposure
  WindExposed,                            !- Wind Exposure
  ,                                       !- View Factor to Ground
  ,                                       !- Number of Vertices
  0, 5.83647564888264, 2.4384,            !- X,Y,Z Vertex 1 {m}
  0, 5.83647564888264, 0,                 !- X,Y,Z Vertex 2 {m}
  0, 0, 0,                                !- X,Y,Z Vertex 3 {m}
  0, 0, 2.4384;                           !- X,Y,Z Vertex 4 {m}

OS:Surface,
  {95c1e1cd-d023-4f84-bf9e-6eeee5bcc51c}, !- Handle
  Surface 9,                              !- Name
  Wall,                                   !- Surface Type
  ,                                       !- Construction Name
  {79a47614-832b-4540-b4ab-dc31f4b496dc}, !- Space Name
  Outdoors,                               !- Outside Boundary Condition
  ,                                       !- Outside Boundary Condition Object
  SunExposed,                             !- Sun Exposure
  WindExposed,                            !- Wind Exposure
  ,                                       !- View Factor to Ground
  ,                                       !- Number of Vertices
  11.6729512977653, 5.83647564888264, 2.4384, !- X,Y,Z Vertex 1 {m}
  11.6729512977653, 5.83647564888264, 0,  !- X,Y,Z Vertex 2 {m}
  0, 5.83647564888264, 0,                 !- X,Y,Z Vertex 3 {m}
  0, 5.83647564888264, 2.4384;            !- X,Y,Z Vertex 4 {m}

OS:Surface,
  {79b6060f-bde9-4c21-91ff-e289391e8c3a}, !- Handle
  Surface 10,                             !- Name
  Wall,                                   !- Surface Type
  ,                                       !- Construction Name
  {79a47614-832b-4540-b4ab-dc31f4b496dc}, !- Space Name
  Outdoors,                               !- Outside Boundary Condition
  ,                                       !- Outside Boundary Condition Object
  SunExposed,                             !- Sun Exposure
  WindExposed,                            !- Wind Exposure
  ,                                       !- View Factor to Ground
  ,                                       !- Number of Vertices
  11.6729512977653, 3.048, 2.4384,        !- X,Y,Z Vertex 1 {m}
  11.6729512977653, 3.048, 0,             !- X,Y,Z Vertex 2 {m}
  11.6729512977653, 5.83647564888264, 0,  !- X,Y,Z Vertex 3 {m}
  11.6729512977653, 5.83647564888264, 2.4384; !- X,Y,Z Vertex 4 {m}

OS:Surface,
  {df9f8709-6312-4014-ae6e-f03185edefe0}, !- Handle
  Surface 11,                             !- Name
  Wall,                                   !- Surface Type
  ,                                       !- Construction Name
  {79a47614-832b-4540-b4ab-dc31f4b496dc}, !- Space Name
  Surface,                                !- Outside Boundary Condition
  {6ae6ffb8-35dc-4673-9479-8b47f89e2962}, !- Outside Boundary Condition Object
  NoSun,                                  !- Sun Exposure
  NoWind,                                 !- Wind Exposure
  ,                                       !- View Factor to Ground
  ,                                       !- Number of Vertices
  5.57695129776527, 3.048, 2.4384,        !- X,Y,Z Vertex 1 {m}
  5.57695129776527, 3.048, 0,             !- X,Y,Z Vertex 2 {m}
  11.6729512977653, 3.048, 0,             !- X,Y,Z Vertex 3 {m}
  11.6729512977653, 3.048, 2.4384;        !- X,Y,Z Vertex 4 {m}

OS:Surface,
  {b9be8f11-b4e6-46cd-9d85-f422a97fee2b}, !- Handle
  Surface 12,                             !- Name
  Wall,                                   !- Surface Type
  ,                                       !- Construction Name
  {79a47614-832b-4540-b4ab-dc31f4b496dc}, !- Space Name
  Surface,                                !- Outside Boundary Condition
  {6404552f-1bf3-445e-8523-1bf50cf97b88}, !- Outside Boundary Condition Object
  NoSun,                                  !- Sun Exposure
  NoWind,                                 !- Wind Exposure
  ,                                       !- View Factor to Ground
  ,                                       !- Number of Vertices
  5.57695129776527, 0, 2.4384,            !- X,Y,Z Vertex 1 {m}
  5.57695129776527, 0, 0,                 !- X,Y,Z Vertex 2 {m}
  5.57695129776527, 3.048, 0,             !- X,Y,Z Vertex 3 {m}
  5.57695129776527, 3.048, 2.4384;        !- X,Y,Z Vertex 4 {m}

OS:Surface,
  {bf59fd5f-085f-4e34-a9a1-705922b8c408}, !- Handle
  Surface 13,                             !- Name
  Wall,                                   !- Surface Type
  ,                                       !- Construction Name
  {79a47614-832b-4540-b4ab-dc31f4b496dc}, !- Space Name
  Outdoors,                               !- Outside Boundary Condition
  ,                                       !- Outside Boundary Condition Object
  SunExposed,                             !- Sun Exposure
  WindExposed,                            !- Wind Exposure