!- NOTE: Auto-generated from /test/osw_files/MF_8units_1story_SL_InsetLeft.osw

OS:Version,
  {bc1f65f5-953f-4dc0-9721-2e43d428a7dd}, !- Handle
  2.4.1;                                  !- Version Identifier

OS:Building,
  {bf305633-c5a1-4881-9edf-ca5e1a8e1274}, !- Handle
  Building,                               !- Name
  ,                                       !- Building Sector Type
  ,                                       !- North Axis {deg}
  ,                                       !- Nominal Floor to Floor Height {m}
  ,                                       !- Space Type Name
  ,                                       !- Default Construction Set Name
  ,                                       !- Default Schedule Set Name
  1,                                      !- Standards Number of Stories
  1,                                      !- Standards Number of Above Ground Stories
  multifamily,                            !- Standards Building Type
  8;                                      !- Standards Number of Living Units

OS:YearDescription,
  {513d8dda-86cb-442a-b01c-1f7f0e0ac70e}; !- Handle

OS:SimulationControl,
  {2c487a4c-bac9-4ac5-b669-1e49d9da7c2b}, !- Handle
  ,                                       !- Do Zone Sizing Calculation
  ,                                       !- Do System Sizing Calculation
  ,                                       !- Do Plant Sizing Calculation
  No,                                     !- Run Simulation for Sizing Periods
  ;                                       !- Run Simulation for Weather File Run Periods

OS:Timestep,
  {4ebc9f1e-4707-402e-9844-67eb1ffbd522}, !- Handle
  6;                                      !- Number of Timesteps per Hour

OS:RunPeriod,
  {28df894d-6af9-4fb8-8f56-df1753344aa3}, !- Handle
  Run Period,                             !- Name
  1,                                      !- Begin Month
  1,                                      !- Begin Day of Month
  12,                                     !- End Month
  31,                                     !- End Day of Month
  ,                                       !- Use Weather File Holidays and Special Days
  ,                                       !- Use Weather File Daylight Saving Period
  ,                                       !- Apply Weekend Holiday Rule
  ,                                       !- Use Weather File Rain Indicators
  ,                                       !- Use Weather File Snow Indicators
  ;                                       !- Number of Times Runperiod to be Repeated

OS:Sizing:Parameters,
  {dde5af6f-7923-4600-a28a-7556673a0266}, !- Handle
  1.0,                                    !- Heating Sizing Factor
  1.0;                                    !- Cooling Sizing Factor

OS:ShadowCalculation,
  {ca758bea-4416-4626-9bba-3d8795c79bd6}, !- Handle
  20,                                     !- Calculation Frequency
  200;                                    !- Maximum Figures in Shadow Overlap Calculations

OS:SurfaceConvectionAlgorithm:Inside,
  {aaabfc36-718a-4ab0-b622-f186ebb45230}, !- Handle
  TARP;                                   !- Algorithm

OS:SurfaceConvectionAlgorithm:Outside,
  {9a0a9f6f-4bbd-4b12-a121-9492a1fcd7d6}, !- Handle
  DOE-2;                                  !- Algorithm

OS:HeatBalanceAlgorithm,
  {9d93e563-e1e0-46d7-9e39-d1c8aceb7212}, !- Handle
  ConductionTransferFunction,             !- Algorithm
  200;                                    !- Surface Temperature Upper Limit {C}

OS:ZoneCapacitanceMultiplier:ResearchSpecial,
  {6bfced16-b16f-47f6-8223-f7e267d75d19}, !- Handle
  ,                                       !- Temperature Capacity Multiplier
  15,                                     !- Humidity Capacity Multiplier
  ;                                       !- Carbon Dioxide Capacity Multiplier

OS:ThermalZone,
  {cf91e82e-8260-4851-914d-09658b735212}, !- Handle
  living zone,                            !- Name
  ,                                       !- Multiplier
  ,                                       !- Ceiling Height {m}
  ,                                       !- Volume {m3}
  ,                                       !- Floor Area {m2}
  ,                                       !- Zone Inside Convection Algorithm
  ,                                       !- Zone Outside Convection Algorithm
  ,                                       !- Zone Conditioning Equipment List Name
  {4b485b55-cbff-41fa-ba87-bf4b0f1a230f}, !- Zone Air Inlet Port List
  {08bda35d-ad91-45b5-b0b8-b6558e76ed58}, !- Zone Air Exhaust Port List
  {2f6e150e-3825-497b-ae97-805290fd140a}, !- Zone Air Node Name
  ,                                       !- Zone Return Air Node Name
  ,                                       !- Primary Daylighting Control Name
  ,                                       !- Fraction of Zone Controlled by Primary Daylighting Control
  ,                                       !- Secondary Daylighting Control Name
  ,                                       !- Fraction of Zone Controlled by Secondary Daylighting Control
  ,                                       !- Illuminance Map Name
  ,                                       !- Group Rendering Name
  ,                                       !- Thermostat Name
  No;                                     !- Use Ideal Air Loads

OS:Node,
  {16221356-0b21-464f-9021-e6eb37e23571}, !- Handle
  Node 1,                                 !- Name
  {2f6e150e-3825-497b-ae97-805290fd140a}, !- Inlet Port
  ;                                       !- Outlet Port

OS:Connection,
  {2f6e150e-3825-497b-ae97-805290fd140a}, !- Handle
  {9aef9c60-8b79-4355-999e-893a112fd947}, !- Name
  {cf91e82e-8260-4851-914d-09658b735212}, !- Source Object
  11,                                     !- Outlet Port
  {16221356-0b21-464f-9021-e6eb37e23571}, !- Target Object
  2;                                      !- Inlet Port

OS:PortList,
  {4b485b55-cbff-41fa-ba87-bf4b0f1a230f}, !- Handle
  {4d2cd5e1-5896-4568-ae55-2d6159f7d988}, !- Name
  {cf91e82e-8260-4851-914d-09658b735212}; !- HVAC Component

OS:PortList,
  {08bda35d-ad91-45b5-b0b8-b6558e76ed58}, !- Handle
  {8774079b-dc88-4dda-87ad-70c28eaa8373}, !- Name
  {cf91e82e-8260-4851-914d-09658b735212}; !- HVAC Component

OS:Sizing:Zone,
  {7ec36a43-5222-407a-b4ed-229e7d60414f}, !- Handle
  {cf91e82e-8260-4851-914d-09658b735212}, !- Zone or ZoneList Name
  SupplyAirTemperature,                   !- Zone Cooling Design Supply Air Temperature Input Method
  14,                                     !- Zone Cooling Design Supply Air Temperature {C}
  11.11,                                  !- Zone Cooling Design Supply Air Temperature Difference {deltaC}
  SupplyAirTemperature,                   !- Zone Heating Design Supply Air Temperature Input Method
  40,                                     !- Zone Heating Design Supply Air Temperature {C}
  11.11,                                  !- Zone Heating Design Supply Air Temperature Difference {deltaC}
  0.0085,                                 !- Zone Cooling Design Supply Air Humidity Ratio {kg-H2O/kg-air}
  0.008,                                  !- Zone Heating Design Supply Air Humidity Ratio {kg-H2O/kg-air}
  ,                                       !- Zone Heating Sizing Factor
  ,                                       !- Zone Cooling Sizing Factor
  DesignDay,                              !- Cooling Design Air Flow Method
  ,                                       !- Cooling Design Air Flow Rate {m3/s}
  ,                                       !- Cooling Minimum Air Flow per Zone Floor Area {m3/s-m2}
  ,                                       !- Cooling Minimum Air Flow {m3/s}
  ,                                       !- Cooling Minimum Air Flow Fraction
  DesignDay,                              !- Heating Design Air Flow Method
  ,                                       !- Heating Design Air Flow Rate {m3/s}
  ,                                       !- Heating Maximum Air Flow per Zone Floor Area {m3/s-m2}
  ,                                       !- Heating Maximum Air Flow {m3/s}
  ,                                       !- Heating Maximum Air Flow Fraction
  ,                                       !- Design Zone Air Distribution Effectiveness in Cooling Mode
  ,                                       !- Design Zone Air Distribution Effectiveness in Heating Mode
  No,                                     !- Account for Dedicated Outdoor Air System
  NeutralSupplyAir,                       !- Dedicated Outdoor Air System Control Strategy
  autosize,                               !- Dedicated Outdoor Air Low Setpoint Temperature for Design {C}
  autosize;                               !- Dedicated Outdoor Air High Setpoint Temperature for Design {C}

OS:ZoneHVAC:EquipmentList,
  {c19c61cf-811e-4915-ba9d-ea0cdcd86658}, !- Handle
  Zone HVAC Equipment List 1,             !- Name
  {cf91e82e-8260-4851-914d-09658b735212}; !- Thermal Zone

OS:Space,
  {5f32e48e-f825-4c93-89a0-4e0277b9e02a}, !- Handle
  living space,                           !- Name
  {c27887a5-d940-4ffc-8123-08718af747d4}, !- Space Type Name
  ,                                       !- Default Construction Set Name
  ,                                       !- Default Schedule Set Name
  ,                                       !- Direction of Relative North {deg}
  ,                                       !- X Origin {m}
  ,                                       !- Y Origin {m}
  ,                                       !- Z Origin {m}
  ,                                       !- Building Story Name
  {cf91e82e-8260-4851-914d-09658b735212}, !- Thermal Zone Name
  ,                                       !- Part of Total Floor Area
  ,                                       !- Design Specification Outdoor Air Object Name
  {e7e7668e-0324-4470-be40-949f8bea6c0f}; !- Building Unit Name

OS:Surface,
  {141b835a-bafa-482f-b1e8-580f7392b75d}, !- Handle
  Surface 1,                              !- Name
  Floor,                                  !- Surface Type
  ,                                       !- Construction Name
  {5f32e48e-f825-4c93-89a0-4e0277b9e02a}, !- Space Name
  Ground,                                 !- Outside Boundary Condition
  ,                                       !- Outside Boundary Condition Object
  NoSun,                                  !- Sun Exposure
  NoWind,                                 !- Wind Exposure
  ,                                       !- View Factor to Ground
  ,                                       !- Number of Vertices
  0, -11.3588643451371, 0,                !- X,Y,Z Vertex 1 {m}
  0, 0, 0,                                !- X,Y,Z Vertex 2 {m}
  6.59383217256854, 0, 0,                 !- X,Y,Z Vertex 3 {m}
  6.59383217256854, -13.1876643451371, 0, !- X,Y,Z Vertex 4 {m}
  1.8288, -13.1876643451371, 0,           !- X,Y,Z Vertex 5 {m}
  1.8288, -11.3588643451371, 0;           !- X,Y,Z Vertex 6 {m}

OS:Surface,
  {3f5d912c-2455-40d0-a024-8119ba09e1aa}, !- Handle
  Surface 2,                              !- Name
  Wall,                                   !- Surface Type
  ,                                       !- Construction Name
  {5f32e48e-f825-4c93-89a0-4e0277b9e02a}, !- Space Name
  Outdoors,                               !- Outside Boundary Condition
  ,                                       !- Outside Boundary Condition Object
  SunExposed,                             !- Sun Exposure
  WindExposed,                            !- Wind Exposure
  ,                                       !- View Factor to Ground
  ,                                       !- Number of Vertices
  0, 0, 2.4384,                           !- X,Y,Z Vertex 1 {m}
  0, 0, 0,                                !- X,Y,Z Vertex 2 {m}
  0, -11.3588643451371, 0,                !- X,Y,Z Vertex 3 {m}
  0, -11.3588643451371, 2.4384;           !- X,Y,Z Vertex 4 {m}

OS:Surface,
  {f1e280bc-0eb7-4dfb-9edc-d254f162ddda}, !- Handle
  Surface 3,                              !- Name
  Wall,                                   !- Surface Type
  ,                                       !- Construction Name
  {5f32e48e-f825-4c93-89a0-4e0277b9e02a}, !- Space Name
  Adiabatic,                              !- Outside Boundary Condition
  ,                                       !- Outside Boundary Condition Object
  NoSun,                                  !- Sun Exposure
  NoWind,                                 !- Wind Exposure
  ,                                       !- View Factor to Ground
  ,                                       !- Number of Vertices
  6.59383217256854, 0, 2.4384,            !- X,Y,Z Vertex 1 {m}
  6.59383217256854, 0, 0,                 !- X,Y,Z Vertex 2 {m}
  0, 0, 0,                                !- X,Y,Z Vertex 3 {m}
  0, 0, 2.4384;                           !- X,Y,Z Vertex 4 {m}

OS:Surface,
  {63487ca2-e9b7-42ea-a5a1-5c5c4f4e339e}, !- Handle
  Surface 4,                              !- Name
  Wall,                                   !- Surface Type
  ,                                       !- Construction Name
  {5f32e48e-f825-4c93-89a0-4e0277b9e02a}, !- Space Name
  Surface,                                !- Outside Boundary Condition
  {6191056c-623c-46a7-bb49-a9e779c1972e}, !- Outside Boundary Condition Object
  NoSun,                                  !- Sun Exposure
  NoWind,                                 !- Wind Exposure
  ,                                       !- View Factor to Ground
  ,                                       !- Number of Vertices
  6.59383217256854, -11.3588643451371, 2.4384, !- X,Y,Z Vertex 1 {m}
  6.59383217256854, -11.3588643451371, 0, !- X,Y,Z Vertex 2 {m}
  6.59383217256854, 0, 0,                 !- X,Y,Z Vertex 3 {m}
  6.59383217256854, 0, 2.4384;            !- X,Y,Z Vertex 4 {m}

OS:Surface,
  {4611624e-fdde-41f5-af38-b87b5a8479ea}, !- Handle
  Surface 5,                              !- Name
  Wall,                                   !- Surface Type
  ,                                       !- Construction Name
  {5f32e48e-f825-4c93-89a0-4e0277b9e02a}, !- Space Name
  Outdoors,                               !- Outside Boundary Condition
  ,                                       !- Outside Boundary Condition Object
  SunExposed,                             !- Sun Exposure
  WindExposed,                            !- Wind Exposure
  ,                                       !- View Factor to Ground
  ,                                       !- Number of Vertices
  1.8288, -13.1876643451371, 2.4384,      !- X,Y,Z Vertex 1 {m}
  1.8288, -13.1876643451371, 0,           !- X,Y,Z Vertex 2 {m}
  6.59383217256854, -13.1876643451371, 0, !- X,Y,Z Vertex 3 {m}
  6.59383217256854, -13.1876643451371, 2.4384; !- X,Y,Z Vertex 4 {m}

OS:Surface,
  {4286a036-906f-4ec3-a68a-b91c8c0645e2}, !- Handle
  Surface 6,                              !- Name
  Wall,                                   !- Surface Type
  ,                                       !- Construction Name
  {5f32e48e-f825-4c93-89a0-4e0277b9e02a}, !- Space Name
  Outdoors,                               !- Outside Boundary Condition
  ,                                       !- Outside Boundary Condition Object
  SunExposed,                             !- Sun Exposure
  WindExposed,                            !- Wind Exposure
  ,                                       !- View Factor to Ground
  ,                                       !- Number of Vertices
  1.8288, -11.3588643451371, 2.4384,      !- X,Y,Z Vertex 1 {m}
  1.8288, -11.3588643451371, 0,           !- X,Y,Z Vertex 2 {m}
  1.8288, -13.1876643451371, 0,           !- X,Y,Z Vertex 3 {m}
  1.8288, -13.1876643451371, 2.4384;      !- X,Y,Z Vertex 4 {m}

OS:Surface,
  {dbdbeb50-202c-44bb-8fc0-175e7e58010a}, !- Handle
  Surface 7,                              !- Name
  Wall,                                   !- Surface Type
  ,                                       !- Construction Name
  {5f32e48e-f825-4c93-89a0-4e0277b9e02a}, !- Space Name
  Outdoors,                               !- Outside Boundary Condition
  ,                                       !- Outside Boundary Condition Object
  SunExposed,                             !- Sun Exposure
  WindExposed,                            !- Wind Exposure
  ,                                       !- View Factor to Ground
  ,                                       !- Number of Vertices
  0, -11.3588643451371, 2.4384,           !- X,Y,Z Vertex 1 {m}
  0, -11.3588643451371, 0,                !- X,Y,Z Vertex 2 {m}
  1.8288, -11.3588643451371, 0,           !- X,Y,Z Vertex 3 {m}
  1.8288, -11.3588643451371, 2.4384;      !- X,Y,Z Vertex 4 {m}

OS:Surface,
  {83408839-fa7e-46b9-88fe-2b8c42c3f7ad}, !- Handle
  Surface 8,                              !- Name
  RoofCeiling,                            !- Surface Type
  ,                                       !- Construction Name
  {5f32e48e-f825-4c93-89a0-4e0277b9e02a}, !- Space Name
  Outdoors,                               !- Outside Boundary Condition
  ,                                       !- Outside Boundary Condition Object
  SunExposed,                             !- Sun Exposure
  WindExposed,                            !- Wind Exposure
  ,                                       !- View Factor to Ground
  ,                                       !- Number of Vertices
  1.8288, -11.3588643451371, 2.4384,      !- X,Y,Z Vertex 1 {m}
  1.8288, -13.1876643451371, 2.4384,      !- X,Y,Z Vertex 2 {m}
  6.59383217256854, -13.1876643451371, 2.4384, !- X,Y,Z Vertex 3 {m}
  6.59383217256854, 0, 2.4384,            !- X,Y,Z Vertex 4 {m}
  0, 0, 2.4384,                           !- X,Y,Z Vertex 5 {m}
  0, -11.3588643451371, 2.4384;           !- X,Y,Z Vertex 6 {m}

OS:SpaceType,
  {c27887a5-d940-4ffc-8123-08718af747d4}, !- Handle
  Space Type 1,                           !- Name
  ,                                       !- Default Construction Set Name
  ,                                       !- Default Schedule Set Name
  ,                                       !- Group Rendering Name
  ,                                       !- Design Specification Outdoor Air Object Name
  ,                                       !- Standards Building Type
  living;                                 !- Standards Space Type

OS:ThermalZone,
  {c8552209-032b-4714-92a7-34f2a00ba876}, !- Handle
  living zone|unit 2,                     !- Name
  ,                                       !- Multiplier
  ,                                       !- Ceiling Height {m}
  ,                                       !- Volume {m3}
  ,                                       !- Floor Area {m2}
  ,                                       !- Zone Inside Convection Algorithm
  ,                                       !- Zone Outside Convection Algorithm
  ,                                       !- Zone Conditioning Equipment List Name
  {ec808f02-1a42-4e15-baf0-e4172814f6d0}, !- Zone Air Inlet Port List
  {1aa411b8-f07a-49eb-b6b5-45b57052aa4e}, !- Zone Air Exhaust Port List
  {5314c0f8-fd3f-4e29-a198-0e8b6127b3da}, !- Zone Air Node Name
  ,                                       !- Zone Return Air Node Name
  ,                                       !- Primary Daylighting Control Name
  ,                                       !- Fraction of Zone Controlled by Primary Daylighting Control
  ,                                       !- Secondary Daylighting Control Name
  ,                                       !- Fraction of Zone Controlled by Secondary Daylighting Control
  ,                                       !- Illuminance Map Name
  ,                                       !- Group Rendering Name
  ,                                       !- Thermostat Name
  No;                                     !- Use Ideal Air Loads

OS:Node,
  {9663e137-f267-40d3-b3a1-2e138da49429}, !- Handle
  Node 2,                                 !- Name
  {5314c0f8-fd3f-4e29-a198-0e8b6127b3da}, !- Inlet Port
  ;                                       !- Outlet Port

OS:Connection,
  {5314c0f8-fd3f-4e29-a198-0e8b6127b3da}, !- Handle
  {0f8c2b02-0fa1-4a55-81c1-6b024a0c87ac}, !- Name
  {c8552209-032b-4714-92a7-34f2a00ba876}, !- Source Object
  11,                                     !- Outlet Port
  {9663e137-f267-40d3-b3a1-2e138da49429}, !- Target Object
  2;                                      !- Inlet Port

OS:PortList,
  {ec808f02-1a42-4e15-baf0-e4172814f6d0}, !- Handle
  {0444da54-f192-4911-82b2-815e256135a8}, !- Name
  {c8552209-032b-4714-92a7-34f2a00ba876}; !- HVAC Component

OS:PortList,
  {1aa411b8-f07a-49eb-b6b5-45b57052aa4e}, !- Handle
  {19f7f286-e220-4c83-a792-159ccb958cc0}, !- Name
  {c8552209-032b-4714-92a7-34f2a00ba876}; !- HVAC Component

OS:Sizing:Zone,
  {7a15302b-cd04-42ba-9343-20bd89446c99}, !- Handle
  {c8552209-032b-4714-92a7-34f2a00ba876}, !- Zone or ZoneList Name
  SupplyAirTemperature,                   !- Zone Cooling Design Supply Air Temperature Input Method
  14,                                     !- Zone Cooling Design Supply Air Temperature {C}
  11.11,                                  !- Zone Cooling Design Supply Air Temperature Difference {deltaC}
  SupplyAirTemperature,                   !- Zone Heating Design Supply Air Temperature Input Method
  40,                                     !- Zone Heating Design Supply Air Temperature {C}
  11.11,                                  !- Zone Heating Design Supply Air Temperature Difference {deltaC}
  0.0085,                                 !- Zone Cooling Design Supply Air Humidity Ratio {kg-H2O/kg-air}
  0.008,                                  !- Zone Heating Design Supply Air Humidity Ratio {kg-H2O/kg-air}
  ,                                       !- Zone Heating Sizing Factor
  ,                                       !- Zone Cooling Sizing Factor
  DesignDay,                              !- Cooling Design Air Flow Method
  ,                                       !- Cooling Design Air Flow Rate {m3/s}
  ,                                       !- Cooling Minimum Air Flow per Zone Floor Area {m3/s-m2}
  ,                                       !- Cooling Minimum Air Flow {m3/s}
  ,                                       !- Cooling Minimum Air Flow Fraction
  DesignDay,                              !- Heating Design Air Flow Method
  ,                                       !- Heating Design Air Flow Rate {m3/s}
  ,                                       !- Heating Maximum Air Flow per Zone Floor Area {m3/s-m2}
  ,                                       !- Heating Maximum Air Flow {m3/s}
  ,                                       !- Heating Maximum Air Flow Fraction
  ,                                       !- Design Zone Air Distribution Effectiveness in Cooling Mode
  ,                                       !- Design Zone Air Distribution Effectiveness in Heating Mode
  No,                                     !- Account for Dedicated Outdoor Air System
  NeutralSupplyAir,                       !- Dedicated Outdoor Air System Control Strategy
  autosize,                               !- Dedicated Outdoor Air Low Setpoint Temperature for Design {C}
  autosize;                               !- Dedicated Outdoor Air High Setpoint Temperature for Design {C}

OS:ZoneHVAC:EquipmentList,
  {9365e204-620b-4eeb-8e32-38c48257810d}, !- Handle
  Zone HVAC Equipment List 2,             !- Name
  {c8552209-032b-4714-92a7-34f2a00ba876}; !- Thermal Zone

OS:Space,
  {3672b763-0af5-4a94-ba60-3826061bf0c0}, !- Handle
  living space|unit 2,                    !- Name
  {c27887a5-d940-4ffc-8123-08718af747d4}, !- Space Type Name
  ,                                       !- Default Construction Set Name
  ,                                       !- Default Schedule Set Name
  ,                                       !- Direction of Relative North {deg}
  ,                                       !- X Origin {m}
  ,                                       !- Y Origin {m}
  ,                                       !- Z Origin {m}
  ,                                       !- Building Story Name
  {c8552209-032b-4714-92a7-34f2a00ba876}, !- Thermal Zone Name
  ,                                       !- Part of Total Floor Area
  ,                                       !- Design Specification Outdoor Air Object Name
  {5cd5b53f-a8b1-4ec4-a0f7-819dafe1dd81}; !- Building Unit Name

OS:Surface,
  {d7afb841-1e6f-4df0-a54d-6395078ee3a3}, !- Handle
  Surface 9,                              !- Name
  Floor,                                  !- Surface Type
  ,                                       !- Construction Name
  {3672b763-0af5-4a94-ba60-3826061bf0c0}, !- Space Name
  Ground,                                 !- Outside Boundary Condition
  ,                                       !- Outside Boundary Condition Object
  NoSun,                                  !- Sun Exposure
  NoWind,                                 !- Wind Exposure
  ,                                       !- View Factor to Ground
  ,                                       !- Number of Vertices
  0, 3.048, 0,                            !- X,Y,Z Vertex 1 {m}
  0, 16.2356643451371, 0,                 !- X,Y,Z Vertex 2 {m}
  4.76503217256854, 16.2356643451371, 0,  !- X,Y,Z Vertex 3 {m}
  4.76503217256854, 14.4068643451371, 0,  !- X,Y,Z Vertex 4 {m}
  6.59383217256854, 14.4068643451371, 0,  !- X,Y,Z Vertex 5 {m}
  6.59383217256854, 3.048, 0;             !- X,Y,Z Vertex 6 {m}

OS:Surface,
  {b09eb091-19fe-48f2-b46b-77038ed1c524}, !- Handle
  Surface 10,                             !- Name
  Wall,                                   !- Surface Type
  ,                                       !- Construction Name
  {3672b763-0af5-4a94-ba60-3826061bf0c0}, !- Space Name
  Outdoors,                               !- Outside Boundary Condition
  ,                                       !- Outside Boundary Condition Object
  SunExposed,                             !- Sun Exposure
  WindExposed,                            !- Wind Exposure
  ,                                       !- View Factor to Ground
  ,                                       !- Number of Vertices
  0, 16.2356643451371, 2.4384,            !- X,Y,Z Vertex 1 {m}
  0, 16.2356643451371, 0,                 !- X,Y,Z Vertex 2 {m}
  0, 3.048, 0,                            !- X,Y,Z Vertex 3 {m}
  0, 3.048, 2.4384;                       !- X,Y,Z Vertex 4 {m}

OS:Surface,
  {fa738959-2e2d-41ea-bafe-eb1975ce7e71}, !- Handle
  Surface 11,                             !- Name
  Wall,                                   !- Surface Type
  ,                                       !- Construction Name
  {3672b763-0af5-4a94-ba60-3826061bf0c0}, !- Space Name
  Outdoors,                               !- Outside Boundary Condition
  ,                                       !- Outside Boundary Condition Object
  SunExposed,                             !- Sun Exposure
  WindExposed,                            !- Wind Exposure
  ,                                       !- View Factor to Ground
  ,                                       !- Number of Vertices
  4.76503217256854, 16.2356643451371, 2.4384, !- X,Y,Z Vertex 1 {m}
  4.76503217256854, 16.2356643451371, 0,  !- X,Y,Z Vertex 2 {m}
  0, 16.2356643451371, 0,                 !- X,Y,Z Vertex 3 {m}
  0, 16.2356643451371, 2.4384;            !- X,Y,Z Vertex 4 {m}

OS:Surface,
  {3b45694f-d74b-47b3-84b8-a86e36b0df74}, !- Handle
  Surface 12,                             !- Name
  Wall,                                   !- Surface Type
  ,                                       !- Construction Name
  {3672b763-0af5-4a94-ba60-3826061bf0c0}, !- Space Name
  Outdoors,                               !- Outside Boundary Condition
  ,                                       !- Outside Boundary Condition Object
  SunExposed,                             !- Sun Exposure
  WindExposed,                            !- Wind Exposure
  ,                                       !- View Factor to Ground
  ,                                       !- Number of Vertices
  4.76503217256854, 14.4068643451371, 2.4384, !- X,Y,Z Vertex 1 {m}
  4.76503217256854, 14.4068643451371, 0,  !- X,Y,Z Vertex 2 {m}
  4.76503217256854, 16.2356643451371, 0,  !- X,Y,Z Vertex 3 {m}
  4.76503217256854, 16.2356643451371, 2.4384; !- X,Y,Z Vertex 4 {m}

OS:Surface,
  {02fb9964-404e-43e2-bcfe-537c994f2115}, !- Handle
  Surface 13,                             !- Name
  Wall,                                   !- Surface Type
  ,                                       !- Construction Name
  {3672b763-0af5-4a94-ba60-3826061bf0c0}, !- Space Name
  Outdoors,                               !- Outside Boundary Condition
  ,                                       !- Outside Boundary Condition Object
  SunExposed,                             !- Sun Exposure
  WindExposed,                            !- Wind Exposure
  ,                                       !- View Factor to Ground
  ,                                       !- Number of Vertices
  6.59383217256854, 14.4068643451371, 2.4384, !- X,Y,Z Vertex 1 {m}
  6.59383217256854, 14.4068643451371, 0,  !- X,Y,Z Vertex 2 {m}
  4.76503217256854, 14.4068643451371, 0,  !- X,Y,Z Vertex 3 {m}
  4.76503217256854, 14.4068643451371, 2.4384; !- X,Y,Z Vertex 4 {m}

OS:Surface,
  {92da748e-e003-4190-ae30-25260e73a7d7}, !- Handle
  Surface 14,                             !- Name
  Wall,                                   !- Surface Type
  ,                                       !- Construction Name
  {3672b763-0af5-4a94-ba60-3826061bf0c0}, !- Space Name
  Surface,                                !- Outside Boundary Condition
  {3f6e9393-1b21-48b1-a0be-05c51ce5c66a}, !- Outside Boundary Condition Object
  NoSun,                                  !- Sun Exposure
  NoWind,                                 !- Wind Exposure
  ,                                       !- View Factor to Ground
  ,                                       !- Number of Vertices