!- NOTE: Auto-generated from /test/osw_files/SFA_4units_1story_FB_UA_Denver_FlatRoof.osw

OS:Version,
  {ee506b75-d372-4efb-909d-9d5c34f6e718}, !- Handle
  2.4.1;                                  !- Version Identifier

OS:Building,
  {bf305633-c5a1-4881-9edf-ca5e1a8e1274}, !- Handle
  Building,                               !- Name
  ,                                       !- Building Sector Type
  ,                                       !- North Axis {deg}
  ,                                       !- Nominal Floor to Floor Height {m}
  ,                                       !- Space Type Name
  ,                                       !- Default Construction Set Name
  ,                                       !- Default Schedule Set Name
  2,                                      !- Standards Number of Stories
  1,                                      !- Standards Number of Above Ground Stories
  singlefamilyttached,                    !- Standards Building Type
  4;                                      !- Standards Number of Living Units

OS:YearDescription,
  {513d8dda-86cb-442a-b01c-1f7f0e0ac70e}; !- Handle

OS:SimulationControl,
  {2c487a4c-bac9-4ac5-b669-1e49d9da7c2b}, !- Handle
  ,                                       !- Do Zone Sizing Calculation
  ,                                       !- Do System Sizing Calculation
  ,                                       !- Do Plant Sizing Calculation
  No,                                     !- Run Simulation for Sizing Periods
  ;                                       !- Run Simulation for Weather File Run Periods

OS:Timestep,
  {4ebc9f1e-4707-402e-9844-67eb1ffbd522}, !- Handle
  6;                                      !- Number of Timesteps per Hour

OS:RunPeriod,
  {28df894d-6af9-4fb8-8f56-df1753344aa3}, !- Handle
  Run Period,                             !- Name
  1,                                      !- Begin Month
  1,                                      !- Begin Day of Month
  12,                                     !- End Month
  31,                                     !- End Day of Month
  ,                                       !- Use Weather File Holidays and Special Days
  ,                                       !- Use Weather File Daylight Saving Period
  ,                                       !- Apply Weekend Holiday Rule
  ,                                       !- Use Weather File Rain Indicators
  ,                                       !- Use Weather File Snow Indicators
  ;                                       !- Number of Times Runperiod to be Repeated

OS:Sizing:Parameters,
  {dde5af6f-7923-4600-a28a-7556673a0266}, !- Handle
  1.0,                                    !- Heating Sizing Factor
  1.0;                                    !- Cooling Sizing Factor

OS:ShadowCalculation,
  {ca758bea-4416-4626-9bba-3d8795c79bd6}, !- Handle
  20,                                     !- Calculation Frequency
  200;                                    !- Maximum Figures in Shadow Overlap Calculations

OS:SurfaceConvectionAlgorithm:Inside,
  {aaabfc36-718a-4ab0-b622-f186ebb45230}, !- Handle
  TARP;                                   !- Algorithm

OS:SurfaceConvectionAlgorithm:Outside,
  {9a0a9f6f-4bbd-4b12-a121-9492a1fcd7d6}, !- Handle
  DOE-2;                                  !- Algorithm

OS:HeatBalanceAlgorithm,
  {9d93e563-e1e0-46d7-9e39-d1c8aceb7212}, !- Handle
  ConductionTransferFunction,             !- Algorithm
  200;                                    !- Surface Temperature Upper Limit {C}

OS:ZoneCapacitanceMultiplier:ResearchSpecial,
  {6bfced16-b16f-47f6-8223-f7e267d75d19}, !- Handle
  ,                                       !- Temperature Capacity Multiplier
  15,                                     !- Humidity Capacity Multiplier
  ;                                       !- Carbon Dioxide Capacity Multiplier

OS:ThermalZone,
  {c263c67e-cb27-4335-8fbd-1678784fd3ed}, !- Handle
  living zone,                            !- Name
  ,                                       !- Multiplier
  ,                                       !- Ceiling Height {m}
  ,                                       !- Volume {m3}
  ,                                       !- Floor Area {m2}
  ,                                       !- Zone Inside Convection Algorithm
  ,                                       !- Zone Outside Convection Algorithm
  ,                                       !- Zone Conditioning Equipment List Name
  {20016136-f964-47f4-9e6c-173d26c3af48}, !- Zone Air Inlet Port List
  {e8bb94b2-05ee-4715-b37a-eea4e5ca005b}, !- Zone Air Exhaust Port List
  {19ae2ec5-17c5-4c22-9d4c-728f1d2784a2}, !- Zone Air Node Name
  ,                                       !- Zone Return Air Node Name
  ,                                       !- Primary Daylighting Control Name
  ,                                       !- Fraction of Zone Controlled by Primary Daylighting Control
  ,                                       !- Secondary Daylighting Control Name
  ,                                       !- Fraction of Zone Controlled by Secondary Daylighting Control
  ,                                       !- Illuminance Map Name
  ,                                       !- Group Rendering Name
  ,                                       !- Thermostat Name
  No;                                     !- Use Ideal Air Loads

OS:Node,
  {4316c553-bb43-496f-ba7d-22a13c5209d4}, !- Handle
  Node 1,                                 !- Name
  {19ae2ec5-17c5-4c22-9d4c-728f1d2784a2}, !- Inlet Port
  ;                                       !- Outlet Port

OS:Connection,
  {19ae2ec5-17c5-4c22-9d4c-728f1d2784a2}, !- Handle
  {0882831e-3004-4082-b264-cc0eb2116b39}, !- Name
  {c263c67e-cb27-4335-8fbd-1678784fd3ed}, !- Source Object
  11,                                     !- Outlet Port
  {4316c553-bb43-496f-ba7d-22a13c5209d4}, !- Target Object
  2;                                      !- Inlet Port

OS:PortList,
  {20016136-f964-47f4-9e6c-173d26c3af48}, !- Handle
  {5597391d-3b48-4b3a-ab1e-28340040ee99}, !- Name
  {c263c67e-cb27-4335-8fbd-1678784fd3ed}; !- HVAC Component

OS:PortList,
  {e8bb94b2-05ee-4715-b37a-eea4e5ca005b}, !- Handle
  {7811d727-d921-46e9-b765-e353de26fd3f}, !- Name
  {c263c67e-cb27-4335-8fbd-1678784fd3ed}; !- HVAC Component

OS:Sizing:Zone,
  {a12ccb79-2640-4fb3-bf45-03448278873c}, !- Handle
  {c263c67e-cb27-4335-8fbd-1678784fd3ed}, !- Zone or ZoneList Name
  SupplyAirTemperature,                   !- Zone Cooling Design Supply Air Temperature Input Method
  14,                                     !- Zone Cooling Design Supply Air Temperature {C}
  11.11,                                  !- Zone Cooling Design Supply Air Temperature Difference {deltaC}
  SupplyAirTemperature,                   !- Zone Heating Design Supply Air Temperature Input Method
  40,                                     !- Zone Heating Design Supply Air Temperature {C}
  11.11,                                  !- Zone Heating Design Supply Air Temperature Difference {deltaC}
  0.0085,                                 !- Zone Cooling Design Supply Air Humidity Ratio {kg-H2O/kg-air}
  0.008,                                  !- Zone Heating Design Supply Air Humidity Ratio {kg-H2O/kg-air}
  ,                                       !- Zone Heating Sizing Factor
  ,                                       !- Zone Cooling Sizing Factor
  DesignDay,                              !- Cooling Design Air Flow Method
  ,                                       !- Cooling Design Air Flow Rate {m3/s}
  ,                                       !- Cooling Minimum Air Flow per Zone Floor Area {m3/s-m2}
  ,                                       !- Cooling Minimum Air Flow {m3/s}
  ,                                       !- Cooling Minimum Air Flow Fraction
  DesignDay,                              !- Heating Design Air Flow Method
  ,                                       !- Heating Design Air Flow Rate {m3/s}
  ,                                       !- Heating Maximum Air Flow per Zone Floor Area {m3/s-m2}
  ,                                       !- Heating Maximum Air Flow {m3/s}
  ,                                       !- Heating Maximum Air Flow Fraction
  ,                                       !- Design Zone Air Distribution Effectiveness in Cooling Mode
  ,                                       !- Design Zone Air Distribution Effectiveness in Heating Mode
  No,                                     !- Account for Dedicated Outdoor Air System
  NeutralSupplyAir,                       !- Dedicated Outdoor Air System Control Strategy
  autosize,                               !- Dedicated Outdoor Air Low Setpoint Temperature for Design {C}
  autosize;                               !- Dedicated Outdoor Air High Setpoint Temperature for Design {C}

OS:ZoneHVAC:EquipmentList,
  {d6ceb089-fefe-4625-9460-717af7058eaa}, !- Handle
  Zone HVAC Equipment List 1,             !- Name
  {c263c67e-cb27-4335-8fbd-1678784fd3ed}; !- Thermal Zone

OS:Space,
  {ae8bda7a-450f-4a7b-add3-dcc43243b0a7}, !- Handle
  living space,                           !- Name
  {9820b760-1926-4e98-a8b2-a7aad99d7e91}, !- Space Type Name
  ,                                       !- Default Construction Set Name
  ,                                       !- Default Schedule Set Name
  ,                                       !- Direction of Relative North {deg}
  ,                                       !- X Origin {m}
  ,                                       !- Y Origin {m}
  ,                                       !- Z Origin {m}
  ,                                       !- Building Story Name
  {c263c67e-cb27-4335-8fbd-1678784fd3ed}, !- Thermal Zone Name
  ,                                       !- Part of Total Floor Area
  ,                                       !- Design Specification Outdoor Air Object Name
  {75417689-cbef-47ce-a5d5-2cfba426a93b}; !- Building Unit Name

OS:Surface,
  {2b65fb43-3b3d-4a05-9e4a-fcf6303dd1c4}, !- Handle
  Surface 1,                              !- Name
  Floor,                                  !- Surface Type
  ,                                       !- Construction Name
  {ae8bda7a-450f-4a7b-add3-dcc43243b0a7}, !- Space Name
  Surface,                                !- Outside Boundary Condition
  {c3e4610f-c5c4-4b45-81ce-eddd1eb2a1a6}, !- Outside Boundary Condition Object
  NoSun,                                  !- Sun Exposure
  NoWind,                                 !- Wind Exposure
  ,                                       !- View Factor to Ground
  ,                                       !- Number of Vertices
  0, -9.144, 0,                           !- X,Y,Z Vertex 1 {m}
  0, 0, 0,                                !- X,Y,Z Vertex 2 {m}
  4.572, 0, 0,                            !- X,Y,Z Vertex 3 {m}
  4.572, -9.144, 0;                       !- X,Y,Z Vertex 4 {m}

OS:Surface,
  {33e3744a-6fbf-44d9-a633-d7e0ba3ee9e0}, !- Handle
  Surface 2,                              !- Name
  Wall,                                   !- Surface Type
  ,                                       !- Construction Name
  {ae8bda7a-450f-4a7b-add3-dcc43243b0a7}, !- Space Name
  Outdoors,                               !- Outside Boundary Condition
  ,                                       !- Outside Boundary Condition Object
  SunExposed,                             !- Sun Exposure
  WindExposed,                            !- Wind Exposure
  ,                                       !- View Factor to Ground
  ,                                       !- Number of Vertices
  0, 0, 2.4384,                           !- X,Y,Z Vertex 1 {m}
  0, 0, 0,                                !- X,Y,Z Vertex 2 {m}
  0, -9.144, 0,                           !- X,Y,Z Vertex 3 {m}
  0, -9.144, 2.4384;                      !- X,Y,Z Vertex 4 {m}

OS:Surface,
  {60299e3e-6696-4e4d-8ffe-061c74127b15}, !- Handle
  Surface 3,                              !- Name
  Wall,                                   !- Surface Type
  ,                                       !- Construction Name
  {ae8bda7a-450f-4a7b-add3-dcc43243b0a7}, !- Space Name
  Outdoors,                               !- Outside Boundary Condition
  ,                                       !- Outside Boundary Condition Object
  SunExposed,                             !- Sun Exposure
  WindExposed,                            !- Wind Exposure
  ,                                       !- View Factor to Ground
  ,                                       !- Number of Vertices
  4.572, 0, 2.4384,                       !- X,Y,Z Vertex 1 {m}
  4.572, 0, 0,                            !- X,Y,Z Vertex 2 {m}
  0, 0, 0,                                !- X,Y,Z Vertex 3 {m}
  0, 0, 2.4384;                           !- X,Y,Z Vertex 4 {m}

OS:Surface,
  {90d91911-4a01-45d1-bf50-010ceb8ad6f0}, !- Handle
  Surface 4,                              !- Name
  Wall,                                   !- Surface Type
  ,                                       !- Construction Name
  {ae8bda7a-450f-4a7b-add3-dcc43243b0a7}, !- Space Name
  Surface,                                !- Outside Boundary Condition
  {e1725de2-5667-4832-906d-50278042af37}, !- Outside Boundary Condition Object
  NoSun,                                  !- Sun Exposure
  NoWind,                                 !- Wind Exposure
  ,                                       !- View Factor to Ground
  ,                                       !- Number of Vertices
  4.572, -9.144, 2.4384,                  !- X,Y,Z Vertex 1 {m}
  4.572, -9.144, 0,                       !- X,Y,Z Vertex 2 {m}
  4.572, 0, 0,                            !- X,Y,Z Vertex 3 {m}
  4.572, 0, 2.4384;                       !- X,Y,Z Vertex 4 {m}

OS:Surface,
  {d7681fea-4368-4eae-9345-dedb7bfc87aa}, !- Handle
  Surface 5,                              !- Name
  Wall,                                   !- Surface Type
  ,                                       !- Construction Name
  {ae8bda7a-450f-4a7b-add3-dcc43243b0a7}, !- Space Name
  Outdoors,                               !- Outside Boundary Condition
  ,                                       !- Outside Boundary Condition Object
  SunExposed,                             !- Sun Exposure
  WindExposed,                            !- Wind Exposure
  ,                                       !- View Factor to Ground
  ,                                       !- Number of Vertices
  0, -9.144, 2.4384,                      !- X,Y,Z Vertex 1 {m}
  0, -9.144, 0,                           !- X,Y,Z Vertex 2 {m}
  4.572, -9.144, 0,                       !- X,Y,Z Vertex 3 {m}
  4.572, -9.144, 2.4384;                  !- X,Y,Z Vertex 4 {m}

OS:Surface,
  {ae153df5-46c2-468b-a03f-21dec91468a1}, !- Handle
  Surface 6,                              !- Name
  RoofCeiling,                            !- Surface Type
  ,                                       !- Construction Name
  {ae8bda7a-450f-4a7b-add3-dcc43243b0a7}, !- Space Name
  Outdoors,                               !- Outside Boundary Condition
  ,                                       !- Outside Boundary Condition Object
  SunExposed,                             !- Sun Exposure
  WindExposed,                            !- Wind Exposure
  ,                                       !- View Factor to Ground
  ,                                       !- Number of Vertices
  4.572, -9.144, 2.4384,                  !- X,Y,Z Vertex 1 {m}
  4.572, 0, 2.4384,                       !- X,Y,Z Vertex 2 {m}
  0, 0, 2.4384,                           !- X,Y,Z Vertex 3 {m}
  0, -9.144, 2.4384;                      !- X,Y,Z Vertex 4 {m}

OS:SpaceType,
  {9820b760-1926-4e98-a8b2-a7aad99d7e91}, !- Handle
  Space Type 1,                           !- Name
  ,                                       !- Default Construction Set Name
  ,                                       !- Default Schedule Set Name
  ,                                       !- Group Rendering Name
  ,                                       !- Design Specification Outdoor Air Object Name
  ,                                       !- Standards Building Type
  living;                                 !- Standards Space Type

OS:ThermalZone,
  {978c8f23-51ba-4ae6-9d48-765eb50f0928}, !- Handle
  living zone|unit 2,                     !- Name
  ,                                       !- Multiplier
  ,                                       !- Ceiling Height {m}
  ,                                       !- Volume {m3}
  ,                                       !- Floor Area {m2}
  ,                                       !- Zone Inside Convection Algorithm
  ,                                       !- Zone Outside Convection Algorithm
  ,                                       !- Zone Conditioning Equipment List Name
  {f4b12f91-00e0-4dc0-af8b-4da93e63bf8e}, !- Zone Air Inlet Port List
  {fb1e9d0b-8040-4652-b234-1fdc7daa021b}, !- Zone Air Exhaust Port List
  {b3ce8bff-8ab2-49cf-b802-6ebb0223aec6}, !- Zone Air Node Name
  ,                                       !- Zone Return Air Node Name
  ,                                       !- Primary Daylighting Control Name
  ,                                       !- Fraction of Zone Controlled by Primary Daylighting Control
  ,                                       !- Secondary Daylighting Control Name
  ,                                       !- Fraction of Zone Controlled by Secondary Daylighting Control
  ,                                       !- Illuminance Map Name
  ,                                       !- Group Rendering Name
  ,                                       !- Thermostat Name
  No;                                     !- Use Ideal Air Loads

OS:Node,
  {3e8af891-ffd4-4ef6-a12a-3ab172d04565}, !- Handle
  Node 2,                                 !- Name
  {b3ce8bff-8ab2-49cf-b802-6ebb0223aec6}, !- Inlet Port
  ;                                       !- Outlet Port

OS:Connection,
  {b3ce8bff-8ab2-49cf-b802-6ebb0223aec6}, !- Handle
  {2b1c47fc-0730-40ae-a514-06d766b7c909}, !- Name
  {978c8f23-51ba-4ae6-9d48-765eb50f0928}, !- Source Object
  11,                                     !- Outlet Port
  {3e8af891-ffd4-4ef6-a12a-3ab172d04565}, !- Target Object
  2;                                      !- Inlet Port

OS:PortList,
  {f4b12f91-00e0-4dc0-af8b-4da93e63bf8e}, !- Handle
  {64737914-785d-4a0e-a158-8c5f7d144b89}, !- Name
  {978c8f23-51ba-4ae6-9d48-765eb50f0928}; !- HVAC Component

OS:PortList,
  {fb1e9d0b-8040-4652-b234-1fdc7daa021b}, !- Handle
  {86fa4bfc-c7a9-41db-b3bf-10024e247b76}, !- Name
  {978c8f23-51ba-4ae6-9d48-765eb50f0928}; !- HVAC Component

OS:Sizing:Zone,
  {388b249c-8975-45f0-8fa0-4f84ee2743bc}, !- Handle
  {978c8f23-51ba-4ae6-9d48-765eb50f0928}, !- Zone or ZoneList Name
  SupplyAirTemperature,                   !- Zone Cooling Design Supply Air Temperature Input Method
  14,                                     !- Zone Cooling Design Supply Air Temperature {C}
  11.11,                                  !- Zone Cooling Design Supply Air Temperature Difference {deltaC}
  SupplyAirTemperature,                   !- Zone Heating Design Supply Air Temperature Input Method
  40,                                     !- Zone Heating Design Supply Air Temperature {C}
  11.11,                                  !- Zone Heating Design Supply Air Temperature Difference {deltaC}
  0.0085,                                 !- Zone Cooling Design Supply Air Humidity Ratio {kg-H2O/kg-air}
  0.008,                                  !- Zone Heating Design Supply Air Humidity Ratio {kg-H2O/kg-air}
  ,                                       !- Zone Heating Sizing Factor
  ,                                       !- Zone Cooling Sizing Factor
  DesignDay,                              !- Cooling Design Air Flow Method
  ,                                       !- Cooling Design Air Flow Rate {m3/s}
  ,                                       !- Cooling Minimum Air Flow per Zone Floor Area {m3/s-m2}
  ,                                       !- Cooling Minimum Air Flow {m3/s}
  ,                                       !- Cooling Minimum Air Flow Fraction
  DesignDay,                              !- Heating Design Air Flow Method
  ,                                       !- Heating Design Air Flow Rate {m3/s}
  ,                                       !- Heating Maximum Air Flow per Zone Floor Area {m3/s-m2}
  ,                                       !- Heating Maximum Air Flow {m3/s}
  ,                                       !- Heating Maximum Air Flow Fraction
  ,                                       !- Design Zone Air Distribution Effectiveness in Cooling Mode
  ,                                       !- Design Zone Air Distribution Effectiveness in Heating Mode
  No,                                     !- Account for Dedicated Outdoor Air System
  NeutralSupplyAir,                       !- Dedicated Outdoor Air System Control Strategy
  autosize,                               !- Dedicated Outdoor Air Low Setpoint Temperature for Design {C}
  autosize;                               !- Dedicated Outdoor Air High Setpoint Temperature for Design {C}

OS:ZoneHVAC:EquipmentList,
  {465c8052-15ec-4401-b31c-fe7d50e07034}, !- Handle
  Zone HVAC Equipment List 2,             !- Name
  {978c8f23-51ba-4ae6-9d48-765eb50f0928}; !- Thermal Zone

OS:Space,
  {761db546-aad7-48d3-aa11-8cf944b151f8}, !- Handle
  living space|unit 2|story 1,            !- Name
  {9820b760-1926-4e98-a8b2-a7aad99d7e91}, !- Space Type Name
  ,                                       !- Default Construction Set Name
  ,                                       !- Default Schedule Set Name
  -0,                                     !- Direction of Relative North {deg}
  0,                                      !- X Origin {m}
  0,                                      !- Y Origin {m}
  0,                                      !- Z Origin {m}
  ,                                       !- Building Story Name
  {978c8f23-51ba-4ae6-9d48-765eb50f0928}, !- Thermal Zone Name
  ,                                       !- Part of Total Floor Area
  ,                                       !- Design Specification Outdoor Air Object Name
  {c7eb8c9b-bf03-4db3-af9e-fae65ea7c1de}; !- Building Unit Name

OS:Surface,
  {1a458747-2923-4830-acdb-980f80c7264b}, !- Handle
  Surface 7,                              !- Name
  Wall,                                   !- Surface Type
  ,                                       !- Construction Name
  {761db546-aad7-48d3-aa11-8cf944b151f8}, !- Space Name
  Surface,                                !- Outside Boundary Condition
  {9739432d-ab62-4b01-a6fe-072f9bc71d9e}, !- Outside Boundary Condition Object
  NoSun,                                  !- Sun Exposure
  NoWind,                                 !- Wind Exposure
  ,                                       !- View Factor to Ground
  ,                                       !- Number of Vertices
  9.144, -9.144, 2.4384,                  !- X,Y,Z Vertex 1 {m}
  9.144, -9.144, 0,                       !- X,Y,Z Vertex 2 {m}
  9.144, 0, 0,                            !- X,Y,Z Vertex 3 {m}
  9.144, 0, 2.4384;                       !- X,Y,Z Vertex 4 {m}

OS:Surface,
  {e1725de2-5667-4832-906d-50278042af37}, !- Handle
  Surface 8,                              !- Name
  Wall,                                   !- Surface Type
  ,                                       !- Construction Name
  {761db546-aad7-48d3-aa11-8cf944b151f8}, !- Space Name
  Surface,                                !- Outside Boundary Condition
  {90d91911-4a01-45d1-bf50-010ceb8ad6f0}, !- Outside Boundary Condition Object
  NoSun,                                  !- Sun Exposure
  NoWind,                                 !- Wind Exposure
  ,                                       !- View Factor to Ground
  ,                                       !- Number of Vertices
  4.572, 0, 2.4384,                       !- X,Y,Z Vertex 1 {m}
  4.572, 0, 0,                            !- X,Y,Z Vertex 2 {m}
  4.572, -9.144, 0,                       !- X,Y,Z Vertex 3 {m}
  4.572, -9.144, 2.4384;                  !- X,Y,Z Vertex 4 {m}

OS:Surface,
  {7b443767-68e7-4b3a-94e1-3f7e1350a5a5}, !- Handle
  Surface 9,                              !- Name
  Wall,                                   !- Surface Type
  ,                                       !- Construction Name
  {761db546-aad7-48d3-aa11-8cf944b151f8}, !- Space Name
  Outdoors,                               !- Outside Boundary Condition
  ,                                       !- Outside Boundary Condition Object
  SunExposed,                             !- Sun Exposure
  WindExposed,                            !- Wind Exposure
  ,                                       !- View Factor to Ground
  ,                                       !- Number of Vertices
  9.144, 0, 2.4384,                       !- X,Y,Z Vertex 1 {m}
  9.144, 0, 0,                            !- X,Y,Z Vertex 2 {m}
  4.572, 0, 0,                            !- X,Y,Z Vertex 3 {m}
  4.572, 0, 2.4384;                       !- X,Y,Z Vertex 4 {m}

OS:Surface,
  {ae3da6c0-1015-44d5-9bee-4bf3de286b02}, !- Handle
  Surface 10,                             !- Name
  Floor,                                  !- Surface Type
  ,                                       !- Construction Name
  {761db546-aad7-48d3-aa11-8cf944b151f8}, !- Space Name
  Surface,                                !- Outside Boundary Condition
  {6b69ae98-ca03-4294-8dc0-6f7688f9da9a}, !- Outside Boundary Condition Object
  NoSun,                                  !- Sun Exposure
  NoWind,                                 !- Wind Exposure
  ,                                       !- View Factor to Ground
  ,                                       !- Number of Vertices
  4.572, -9.144, 0,                       !- X,Y,Z Vertex 1 {m}
  4.572, 0, 0,                            !- X,Y,Z Vertex 2 {m}
  9.144, 0, 0,                            !- X,Y,Z Vertex 3 {m}
  9.144, -9.144, 0;                       !- X,Y,Z Vertex 4 {m}

OS:Surface,
  {edeb1c9e-d3d9-4904-8b5a-239fa92e5b0a}, !- Handle
  Surface 11,                             !- Name
  RoofCeiling,                            !- Surface Type
  ,                                       !- Construction Name
  {761db546-aad7-48d3-aa11-8cf944b151f8}, !- Space Name
  Outdoors,                               !- Outside Boundary Condition
  ,                                       !- Outside Boundary Condition Object
  SunExposed,                             !- Sun Exposure
  WindExposed,                            !- Wind Exposure
  ,                                       !- View Factor to Ground
  ,                                       !- Number of Vertices
  9.144, -9.144, 2.4384,                  !- X,Y,Z Vertex 1 {m}
  9.144, 0, 2.4384,                       !- X,Y,Z Vertex 2 {m}
  4.572, 0, 2.4384,                       !- X,Y,Z Vertex 3 {m}
  4.572, -9.144, 2.4384;                  !- X,Y,Z Vertex 4 {m}

OS:Surface,
  {321b6fbf-df4d-44ab-a147-8ddba785ce81}, !- Handle
  Surface 12,                             !- Name
  Wall,                                   !- Surface Type
  ,                                       !- Construction Name
  {761db546-aad7-48d3-aa11-8cf944b151f8}, !- Space Name
  Outdoors,                               !- Outside Boundary Condition
  ,                                       !- Outside Boundary Condition Object
  SunExposed,                             !- Sun Exposure
  WindExposed,                            !- Wind Exposure
  ,                                       !- View Factor to Ground
  ,                                       !- Number of Vertices
  4.572, -9.144, 2.4384,                  !- X,Y,Z Vertex 1 {m}
  4.572, -9.144, 0,                       !- X,Y,Z Vertex 2 {m}
  9.144, -9.144, 0,                       !- X,Y,Z Vertex 3 {m}
  9.144, -9.144, 2.4384;                  !- X,Y,Z Vertex 4 {m}

OS:ThermalZone,
  {f1a3646d-cb2b-4fc7-a022-29b043f363f2}, !- Handle
  living zone|unit 3,                     !- Name
  ,                                       !- Multiplier
  ,                                       !- Ceiling Height {m}
  ,                                       !- Volume {m3}
  ,                                       !- Floor Area {m2}
  ,                                       !- Zone Inside Convection Algorithm
  ,                                       !- Zone Outside Convection Algorithm
  ,                                       !- Zone Conditioning Equipment List Name
  {f786dc91-75cd-4ed1-b576-61d66b0127b5}, !- Zone Air Inlet Port List
  {b148032a-33d2-471c-942f-10feab6e6c16}, !- Zone Air Exhaust Port List
  {da757524-bc6e-4a3e-bc61-7ce4987e9ca6}, !- Zone Air Node Name
  ,                                       !- Zone Return Air Node Name
  ,                                       !- Primary Daylighting Control Name
  ,                                       !- Fraction of Zone Controlled by Primary Daylighting Control
  ,                                       !- Secondary Daylighting Control Name
  ,                                       !- Fraction of Zone Controlled by Secondary Daylighting Control
  ,                                       !- Illuminance Map Name
  ,                                       !- Group Rendering Name
  ,                                       !- Thermostat Name
  No;                                     !- Use Ideal Air Loads

OS:Node,
  {4b903f77-c875-4525-ba03-c03d710bbe30}, !- Handle
  Node 3,                                 !- Name
  {da757524-bc6e-4a3e-bc61-7ce4987e9ca6}, !- Inlet Port
  ;                                       !- Outlet Port

OS:Connection,
  {da757524-bc6e-4a3e-bc61-7ce4987e9ca6}, !- Handle
  {6753a2e2-4f55-4a89-b94d-124446ace2f3}, !- Name
  {f1a3646d-cb2b-4fc7-a022-29b043f363f2}, !- Source Object
  11,                                     !- Outlet Port
  {4b903f77-c875-4525-ba03-c03d710bbe30}, !- Target Object
  2;                                      !- Inlet Port

OS:PortList,