!- NOTE: Auto-generated from /test/osw_files/SFD_2000sqft_2story_SL_UA_Denver_HipRoof_AspectRatioHalf.osw

OS:Version,
  {21ce10ce-65f3-415b-9d6e-3c246587c8e8}, !- Handle
  2.4.1;                                  !- Version Identifier

OS:Building,
  {bf305633-c5a1-4881-9edf-ca5e1a8e1274}, !- Handle
  Building,                               !- Name
  ,                                       !- Building Sector Type
  ,                                       !- North Axis {deg}
  ,                                       !- Nominal Floor to Floor Height {m}
  ,                                       !- Space Type Name
  ,                                       !- Default Construction Set Name
  ,                                       !- Default Schedule Set Name
  2,                                      !- Standards Number of Stories
  2,                                      !- Standards Number of Above Ground Stories
  singlefamilydetached,                   !- Standards Building Type
  1;                                      !- Standards Number of Living Units

OS:YearDescription,
  {513d8dda-86cb-442a-b01c-1f7f0e0ac70e}; !- Handle

OS:SimulationControl,
  {2c487a4c-bac9-4ac5-b669-1e49d9da7c2b}, !- Handle
  ,                                       !- Do Zone Sizing Calculation
  ,                                       !- Do System Sizing Calculation
  ,                                       !- Do Plant Sizing Calculation
  No,                                     !- Run Simulation for Sizing Periods
  ;                                       !- Run Simulation for Weather File Run Periods

OS:Timestep,
  {4ebc9f1e-4707-402e-9844-67eb1ffbd522}, !- Handle
  6;                                      !- Number of Timesteps per Hour

OS:RunPeriod,
  {28df894d-6af9-4fb8-8f56-df1753344aa3}, !- Handle
  Run Period,                             !- Name
  1,                                      !- Begin Month
  1,                                      !- Begin Day of Month
  12,                                     !- End Month
  31,                                     !- End Day of Month
  ,                                       !- Use Weather File Holidays and Special Days
  ,                                       !- Use Weather File Daylight Saving Period
  ,                                       !- Apply Weekend Holiday Rule
  ,                                       !- Use Weather File Rain Indicators
  ,                                       !- Use Weather File Snow Indicators
  ;                                       !- Number of Times Runperiod to be Repeated

OS:Sizing:Parameters,
  {dde5af6f-7923-4600-a28a-7556673a0266}, !- Handle
  1.0,                                    !- Heating Sizing Factor
  1.0;                                    !- Cooling Sizing Factor

OS:ShadowCalculation,
  {ca758bea-4416-4626-9bba-3d8795c79bd6}, !- Handle
  20,                                     !- Calculation Frequency
  200;                                    !- Maximum Figures in Shadow Overlap Calculations

OS:SurfaceConvectionAlgorithm:Inside,
  {aaabfc36-718a-4ab0-b622-f186ebb45230}, !- Handle
  TARP;                                   !- Algorithm

OS:SurfaceConvectionAlgorithm:Outside,
  {9a0a9f6f-4bbd-4b12-a121-9492a1fcd7d6}, !- Handle
  DOE-2;                                  !- Algorithm

OS:HeatBalanceAlgorithm,
  {9d93e563-e1e0-46d7-9e39-d1c8aceb7212}, !- Handle
  ConductionTransferFunction,             !- Algorithm
  200;                                    !- Surface Temperature Upper Limit {C}

OS:ZoneCapacitanceMultiplier:ResearchSpecial,
  {6bfced16-b16f-47f6-8223-f7e267d75d19}, !- Handle
  ,                                       !- Temperature Capacity Multiplier
  15,                                     !- Humidity Capacity Multiplier
  ;                                       !- Carbon Dioxide Capacity Multiplier

OS:ThermalZone,
  {fa991ec0-bcf8-4972-992c-7fa92427c230}, !- Handle
  living zone,                            !- Name
  ,                                       !- Multiplier
  ,                                       !- Ceiling Height {m}
  ,                                       !- Volume {m3}
  ,                                       !- Floor Area {m2}
  ,                                       !- Zone Inside Convection Algorithm
  ,                                       !- Zone Outside Convection Algorithm
  ,                                       !- Zone Conditioning Equipment List Name
  {7cd57add-6948-4fef-90a9-3fcb8984aaf6}, !- Zone Air Inlet Port List
  {6c890b32-e30f-4b4b-8668-a388e676cca2}, !- Zone Air Exhaust Port List
  {b4d78d0a-82c2-443c-91b8-6219eaf7bef2}, !- Zone Air Node Name
  ,                                       !- Zone Return Air Node Name
  ,                                       !- Primary Daylighting Control Name
  ,                                       !- Fraction of Zone Controlled by Primary Daylighting Control
  ,                                       !- Secondary Daylighting Control Name
  ,                                       !- Fraction of Zone Controlled by Secondary Daylighting Control
  ,                                       !- Illuminance Map Name
  ,                                       !- Group Rendering Name
  ,                                       !- Thermostat Name
  No;                                     !- Use Ideal Air Loads

OS:Node,
  {136d6a9e-5c16-49d9-bc5c-d8f59a67fdc8}, !- Handle
  Node 1,                                 !- Name
  {b4d78d0a-82c2-443c-91b8-6219eaf7bef2}, !- Inlet Port
  ;                                       !- Outlet Port

OS:Connection,
  {b4d78d0a-82c2-443c-91b8-6219eaf7bef2}, !- Handle
  {621b78d7-ff22-4baa-8b3d-a404702380a0}, !- Name
  {fa991ec0-bcf8-4972-992c-7fa92427c230}, !- Source Object
  11,                                     !- Outlet Port
  {136d6a9e-5c16-49d9-bc5c-d8f59a67fdc8}, !- Target Object
  2;                                      !- Inlet Port

OS:PortList,
  {7cd57add-6948-4fef-90a9-3fcb8984aaf6}, !- Handle
  {b5cc366d-85e0-44b8-870c-47f6f2c493f1}, !- Name
  {fa991ec0-bcf8-4972-992c-7fa92427c230}; !- HVAC Component

OS:PortList,
  {6c890b32-e30f-4b4b-8668-a388e676cca2}, !- Handle
  {93702ead-b5c7-4f63-8bfe-1022cd52981a}, !- Name
  {fa991ec0-bcf8-4972-992c-7fa92427c230}; !- HVAC Component

OS:Sizing:Zone,
  {f2ef2347-8fcc-43b1-8584-2f8ea1564cc4}, !- Handle
  {fa991ec0-bcf8-4972-992c-7fa92427c230}, !- Zone or ZoneList Name
  SupplyAirTemperature,                   !- Zone Cooling Design Supply Air Temperature Input Method
  14,                                     !- Zone Cooling Design Supply Air Temperature {C}
  11.11,                                  !- Zone Cooling Design Supply Air Temperature Difference {deltaC}
  SupplyAirTemperature,                   !- Zone Heating Design Supply Air Temperature Input Method
  40,                                     !- Zone Heating Design Supply Air Temperature {C}
  11.11,                                  !- Zone Heating Design Supply Air Temperature Difference {deltaC}
  0.0085,                                 !- Zone Cooling Design Supply Air Humidity Ratio {kg-H2O/kg-air}
  0.008,                                  !- Zone Heating Design Supply Air Humidity Ratio {kg-H2O/kg-air}
  ,                                       !- Zone Heating Sizing Factor
  ,                                       !- Zone Cooling Sizing Factor
  DesignDay,                              !- Cooling Design Air Flow Method
  ,                                       !- Cooling Design Air Flow Rate {m3/s}
  ,                                       !- Cooling Minimum Air Flow per Zone Floor Area {m3/s-m2}
  ,                                       !- Cooling Minimum Air Flow {m3/s}
  ,                                       !- Cooling Minimum Air Flow Fraction
  DesignDay,                              !- Heating Design Air Flow Method
  ,                                       !- Heating Design Air Flow Rate {m3/s}
  ,                                       !- Heating Maximum Air Flow per Zone Floor Area {m3/s-m2}
  ,                                       !- Heating Maximum Air Flow {m3/s}
  ,                                       !- Heating Maximum Air Flow Fraction
  ,                                       !- Design Zone Air Distribution Effectiveness in Cooling Mode
  ,                                       !- Design Zone Air Distribution Effectiveness in Heating Mode
  No,                                     !- Account for Dedicated Outdoor Air System
  NeutralSupplyAir,                       !- Dedicated Outdoor Air System Control Strategy
  autosize,                               !- Dedicated Outdoor Air Low Setpoint Temperature for Design {C}
  autosize;                               !- Dedicated Outdoor Air High Setpoint Temperature for Design {C}

OS:ZoneHVAC:EquipmentList,
  {94c45f87-4892-4ee6-b845-28e1ecd246fa}, !- Handle
  Zone HVAC Equipment List 1,             !- Name
  {fa991ec0-bcf8-4972-992c-7fa92427c230}; !- Thermal Zone

OS:Space,
  {0eb70c30-757d-4c6c-bd32-7b2e783d3032}, !- Handle
  living space,                           !- Name
  {416c8739-fa30-43cf-870f-d25d37c5ec8f}, !- Space Type Name
  ,                                       !- Default Construction Set Name
  ,                                       !- Default Schedule Set Name
  -0,                                     !- Direction of Relative North {deg}
  0,                                      !- X Origin {m}
  0,                                      !- Y Origin {m}
  0,                                      !- Z Origin {m}
  ,                                       !- Building Story Name
  {fa991ec0-bcf8-4972-992c-7fa92427c230}, !- Thermal Zone Name
  ,                                       !- Part of Total Floor Area
  ,                                       !- Design Specification Outdoor Air Object Name
  {8f9a5e8e-858f-4e28-8807-8f420bf01e80}; !- Building Unit Name

OS:Surface,
  {181c7262-2725-45cb-bbdd-5f199278ed88}, !- Handle
  Surface 1,                              !- Name
  Floor,                                  !- Surface Type
  ,                                       !- Construction Name
  {0eb70c30-757d-4c6c-bd32-7b2e783d3032}, !- Space Name
  Ground,                                 !- Outside Boundary Condition
  ,                                       !- Outside Boundary Condition Object
  NoSun,                                  !- Sun Exposure
  NoWind,                                 !- Wind Exposure
  ,                                       !- View Factor to Ground
  ,                                       !- Number of Vertices
  0, 0, 0,                                !- X,Y,Z Vertex 1 {m}
  0, 13.6310703908387, 0,                 !- X,Y,Z Vertex 2 {m}
  6.81553519541936, 13.6310703908387, 0,  !- X,Y,Z Vertex 3 {m}
  6.81553519541936, 0, 0;                 !- X,Y,Z Vertex 4 {m}

OS:Surface,
  {55a327f4-37b9-4000-aa6d-d9cc654f3a35}, !- Handle
  Surface 2,                              !- Name
  Wall,                                   !- Surface Type
  ,                                       !- Construction Name
  {0eb70c30-757d-4c6c-bd32-7b2e783d3032}, !- Space Name
  Outdoors,                               !- Outside Boundary Condition
  ,                                       !- Outside Boundary Condition Object
  SunExposed,                             !- Sun Exposure
  WindExposed,                            !- Wind Exposure
  ,                                       !- View Factor to Ground
  ,                                       !- Number of Vertices
  0, 13.6310703908387, 2.4384,            !- X,Y,Z Vertex 1 {m}
  0, 13.6310703908387, 0,                 !- X,Y,Z Vertex 2 {m}
  0, 0, 0,                                !- X,Y,Z Vertex 3 {m}
  0, 0, 2.4384;                           !- X,Y,Z Vertex 4 {m}

OS:Surface,
  {b99a7f1b-f2d0-4d10-bd4a-26946618e5bd}, !- Handle
  Surface 3,                              !- Name
  Wall,                                   !- Surface Type
  ,                                       !- Construction Name
  {0eb70c30-757d-4c6c-bd32-7b2e783d3032}, !- Space Name
  Outdoors,                               !- Outside Boundary Condition
  ,                                       !- Outside Boundary Condition Object
  SunExposed,                             !- Sun Exposure
  WindExposed,                            !- Wind Exposure
  ,                                       !- View Factor to Ground
  ,                                       !- Number of Vertices
  6.81553519541936, 13.6310703908387, 2.4384, !- X,Y,Z Vertex 1 {m}
  6.81553519541936, 13.6310703908387, 0,  !- X,Y,Z Vertex 2 {m}
  0, 13.6310703908387, 0,                 !- X,Y,Z Vertex 3 {m}
  0, 13.6310703908387, 2.4384;            !- X,Y,Z Vertex 4 {m}

OS:Surface,
  {fe7fe0bc-bc40-4f70-a004-7dd8193ed622}, !- Handle
  Surface 4,                              !- Name
  Wall,                                   !- Surface Type
  ,                                       !- Construction Name
  {0eb70c30-757d-4c6c-bd32-7b2e783d3032}, !- Space Name
  Outdoors,                               !- Outside Boundary Condition
  ,                                       !- Outside Boundary Condition Object
  SunExposed,                             !- Sun Exposure
  WindExposed,                            !- Wind Exposure
  ,                                       !- View Factor to Ground
  ,                                       !- Number of Vertices
  6.81553519541936, 0, 2.4384,            !- X,Y,Z Vertex 1 {m}
  6.81553519541936, 0, 0,                 !- X,Y,Z Vertex 2 {m}
  6.81553519541936, 13.6310703908387, 0,  !- X,Y,Z Vertex 3 {m}
  6.81553519541936, 13.6310703908387, 2.4384; !- X,Y,Z Vertex 4 {m}

OS:Surface,
  {55a9e2ca-8b5a-4af0-ac34-ad9bd27a8d97}, !- Handle
  Surface 5,                              !- Name
  Wall,                                   !- Surface Type
  ,                                       !- Construction Name
  {0eb70c30-757d-4c6c-bd32-7b2e783d3032}, !- Space Name
  Outdoors,                               !- Outside Boundary Condition
  ,                                       !- Outside Boundary Condition Object
  SunExposed,                             !- Sun Exposure
  WindExposed,                            !- Wind Exposure
  ,                                       !- View Factor to Ground
  ,                                       !- Number of Vertices
  0, 0, 2.4384,                           !- X,Y,Z Vertex 1 {m}
  0, 0, 0,                                !- X,Y,Z Vertex 2 {m}
  6.81553519541936, 0, 0,                 !- X,Y,Z Vertex 3 {m}
  6.81553519541936, 0, 2.4384;            !- X,Y,Z Vertex 4 {m}

OS:Surface,
  {eefc0db2-64aa-461f-8a7f-9099bb529622}, !- Handle
  Surface 6,                              !- Name
  RoofCeiling,                            !- Surface Type
  ,                                       !- Construction Name
  {0eb70c30-757d-4c6c-bd32-7b2e783d3032}, !- Space Name
  Surface,                                !- Outside Boundary Condition
  {be569a72-5943-4942-b7e9-137a1d0b64f1}, !- Outside Boundary Condition Object
  NoSun,                                  !- Sun Exposure
  NoWind,                                 !- Wind Exposure
  ,                                       !- View Factor to Ground
  ,                                       !- Number of Vertices
  6.81553519541936, 0, 2.4384,            !- X,Y,Z Vertex 1 {m}
  6.81553519541936, 13.6310703908387, 2.4384, !- X,Y,Z Vertex 2 {m}
  0, 13.6310703908387, 2.4384,            !- X,Y,Z Vertex 3 {m}
  0, 0, 2.4384;                           !- X,Y,Z Vertex 4 {m}

OS:SpaceType,
  {416c8739-fa30-43cf-870f-d25d37c5ec8f}, !- Handle
  Space Type 1,                           !- Name
  ,                                       !- Default Construction Set Name
  ,                                       !- Default Schedule Set Name
  ,                                       !- Group Rendering Name
  ,                                       !- Design Specification Outdoor Air Object Name
  ,                                       !- Standards Building Type
  living;                                 !- Standards Space Type

OS:Space,
  {43b6a86c-85ee-408c-b9d3-968e5ae00cef}, !- Handle
  living space|story 2,                   !- Name
  {416c8739-fa30-43cf-870f-d25d37c5ec8f}, !- Space Type Name
  ,                                       !- Default Construction Set Name
  ,                                       !- Default Schedule Set Name
  -0,                                     !- Direction of Relative North {deg}
  0,                                      !- X Origin {m}
  0,                                      !- Y Origin {m}
  2.4384,                                 !- Z Origin {m}
  ,                                       !- Building Story Name
  {fa991ec0-bcf8-4972-992c-7fa92427c230}, !- Thermal Zone Name
  ,                                       !- Part of Total Floor Area
  ,                                       !- Design Specification Outdoor Air Object Name
  {8f9a5e8e-858f-4e28-8807-8f420bf01e80}; !- Building Unit Name

OS:Surface,
  {be569a72-5943-4942-b7e9-137a1d0b64f1}, !- Handle
  Surface 7,                              !- Name
  Floor,                                  !- Surface Type
  ,                                       !- Construction Name
  {43b6a86c-85ee-408c-b9d3-968e5ae00cef}, !- Space Name
  Surface,                                !- Outside Boundary Condition
  {eefc0db2-64aa-461f-8a7f-9099bb529622}, !- Outside Boundary Condition Object
  NoSun,                                  !- Sun Exposure
  NoWind,                                 !- Wind Exposure
  ,                                       !- View Factor to Ground
  ,                                       !- Number of Vertices
  0, 0, 0,                                !- X,Y,Z Vertex 1 {m}
  0, 13.6310703908387, 0,                 !- X,Y,Z Vertex 2 {m}
  6.81553519541936, 13.6310703908387, 0,  !- X,Y,Z Vertex 3 {m}
  6.81553519541936, 0, 0;                 !- X,Y,Z Vertex 4 {m}

OS:Surface,
  {2791961f-fb08-41f4-aa60-23866460e78e}, !- Handle
  Surface 8,                              !- Name
  Wall,                                   !- Surface Type
  ,                                       !- Construction Name
  {43b6a86c-85ee-408c-b9d3-968e5ae00cef}, !- Space Name
  Outdoors,                               !- Outside Boundary Condition
  ,                                       !- Outside Boundary Condition Object
  SunExposed,                             !- Sun Exposure
  WindExposed,                            !- Wind Exposure
  ,                                       !- View Factor to Ground
  ,                                       !- Number of Vertices
  0, 13.6310703908387, 2.4384,            !- X,Y,Z Vertex 1 {m}
  0, 13.6310703908387, 0,                 !- X,Y,Z Vertex 2 {m}
  0, 0, 0,                                !- X,Y,Z Vertex 3 {m}
  0, 0, 2.4384;                           !- X,Y,Z Vertex 4 {m}

OS:Surface,
  {6603627d-b138-463e-9d54-94ed29a0acd5}, !- Handle
  Surface 9,                              !- Name
  Wall,                                   !- Surface Type
  ,                                       !- Construction Name
  {43b6a86c-85ee-408c-b9d3-968e5ae00cef}, !- Space Name
  Outdoors,                               !- Outside Boundary Condition
  ,                                       !- Outside Boundary Condition Object
  SunExposed,                             !- Sun Exposure
  WindExposed,                            !- Wind Exposure
  ,                                       !- View Factor to Ground
  ,                                       !- Number of Vertices
  6.81553519541936, 13.6310703908387, 2.4384, !- X,Y,Z Vertex 1 {m}
  6.81553519541936, 13.6310703908387, 0,  !- X,Y,Z Vertex 2 {m}
  0, 13.6310703908387, 0,                 !- X,Y,Z Vertex 3 {m}
  0, 13.6310703908387, 2.4384;            !- X,Y,Z Vertex 4 {m}

OS:Surface,
  {351315e9-5fa8-43b1-860e-7efccf26d7d5}, !- Handle
  Surface 10,                             !- Name
  Wall,                                   !- Surface Type
  ,                                       !- Construction Name
  {43b6a86c-85ee-408c-b9d3-968e5ae00cef}, !- Space Name
  Outdoors,                               !- Outside Boundary Condition
  ,                                       !- Outside Boundary Condition Object
  SunExposed,                             !- Sun Exposure
  WindExposed,                            !- Wind Exposure
  ,                                       !- View Factor to Ground
  ,                                       !- Number of Vertices
  6.81553519541936, 0, 2.4384,            !- X,Y,Z Vertex 1 {m}
  6.81553519541936, 0, 0,                 !- X,Y,Z Vertex 2 {m}
  6.81553519541936, 13.6310703908387, 0,  !- X,Y,Z Vertex 3 {m}
  6.81553519541936, 13.6310703908387, 2.4384; !- X,Y,Z Vertex 4 {m}

OS:Surface,
  {e5f8b768-63c4-4b6a-86c4-8c87fe60693e}, !- Handle
  Surface 11,                             !- Name
  Wall,                                   !- Surface Type
  ,                                       !- Construction Name
  {43b6a86c-85ee-408c-b9d3-968e5ae00cef}, !- Space Name
  Outdoors,                               !- Outside Boundary Condition
  ,                                       !- Outside Boundary Condition Object
  SunExposed,                             !- Sun Exposure
  WindExposed,                            !- Wind Exposure
  ,                                       !- View Factor to Ground
  ,                                       !- Number of Vertices
  0, 0, 2.4384,                           !- X,Y,Z Vertex 1 {m}
  0, 0, 0,                                !- X,Y,Z Vertex 2 {m}
  6.81553519541936, 0, 0,                 !- X,Y,Z Vertex 3 {m}
  6.81553519541936, 0, 2.4384;            !- X,Y,Z Vertex 4 {m}

OS:Surface,
  {b7c8aa6c-50c2-4cde-b926-f56a0b248cd9}, !- Handle
  Surface 12,                             !- Name
  RoofCeiling,                            !- Surface Type
  ,                                       !- Construction Name
  {43b6a86c-85ee-408c-b9d3-968e5ae00cef}, !- Space Name
  Surface,                                !- Outside Boundary Condition
  {a55cebfb-429f-4f87-a93c-e25e12cf0b0c}, !- Outside Boundary Condition Object
  NoSun,                                  !- Sun Exposure
  NoWind,                                 !- Wind Exposure
  ,                                       !- View Factor to Ground
  ,                                       !- Number of Vertices
  6.81553519541936, 0, 2.4384,            !- X,Y,Z Vertex 1 {m}
  6.81553519541936, 13.6310703908387, 2.4384, !- X,Y,Z Vertex 2 {m}
  0, 13.6310703908387, 2.4384,            !- X,Y,Z Vertex 3 {m}
  0, 0, 2.4384;                           !- X,Y,Z Vertex 4 {m}

OS:Surface,
  {a55cebfb-429f-4f87-a93c-e25e12cf0b0c}, !- Handle
  Surface 13,                             !- Name
  Floor,                                  !- Surface Type
  ,                                       !- Construction Name
  {c65c5ab2-81e4-45fc-8932-19f0021ee3fd}, !- Space Name
  Surface,                                !- Outside Boundary Condition
  {b7c8aa6c-50c2-4cde-b926-f56a0b248cd9}, !- Outside Boundary Condition Object
  NoSun,                                  !- Sun Exposure
  NoWind,                                 !- Wind Exposure
  ,                                       !- View Factor to Ground
  ,                                       !- Number of Vertices
  0, 13.6310703908387, 0,                 !- X,Y,Z Vertex 1 {m}
  6.81553519541936, 13.6310703908387, 0,  !- X,Y,Z Vertex 2 {m}
  6.81553519541936, 0, 0,                 !- X,Y,Z Vertex 3 {m}
  0, 0, 0;                                !- X,Y,Z Vertex 4 {m}

OS:Surface,
  {b30c6927-3366-4a76-a87c-44c35b58e69d}, !- Handle
  Surface 14,                             !- Name
  RoofCeiling,                            !- Surface Type
  ,                                       !- Construction Name
  {c65c5ab2-81e4-45fc-8932-19f0021ee3fd}, !- Space Name
  Outdoors,                               !- Outside Boundary Condition
  ,                                       !- Outside Boundary Condition Object
  SunExposed,                             !- Sun Exposure
  WindExposed,                            !- Wind Exposure
  ,                                       !- View Factor to Ground
  ,                                       !- Number of Vertices
  3.40776759770968, 10.223302793129, 1.70388379885484, !- X,Y,Z Vertex 1 {m}
  3.40776759770968, 3.40776759770968, 1.70388379885484, !- X,Y,Z Vertex 2 {m}
  6.81553519541936, 0, 0,                 !- X,Y,Z Vertex 3 {m}
  6.81553519541936, 13.6310703908387, 0;  !- X,Y,Z Vertex 4 {m}

OS:Surface,
  {a4ff52cd-19e8-400d-90b3-71119f6a1f25}, !- Handle
  Surface 15,                             !- Name
  RoofCeiling,                            !- Surface Type
  ,                                       !- Construction Name
  {c65c5ab2-81e4-45fc-8932-19f0021ee3fd}, !- Space Name
  Outdoors,                               !- Outside Boundary Condition
  ,                                       !- Outside Boundary Condition Object
  SunExposed,                             !- Sun Exposure
  WindExposed,                            !- Wind Exposure
  ,                                       !- View Factor to Ground
  ,                                       !- Number of Vertices
  3.40776759770968, 3.40776759770968, 1.70388379885484, !- X,Y,Z Vertex 1 {m}
  3.40776759770968, 10.223302793129, 1.70388379885484, !- X,Y,Z Vertex 2 {m}
  0, 13.6310703908387, 0,                 !- X,Y,Z Vertex 3 {m}
  0, 0, 0;                                !- X,Y,Z Vertex 4 {m}

OS:Surface,
  {8ceb72db-d378-4ef8-9503-e9c9be88752f}, !- Handle
  Surface 16,                             !- Name
  RoofCeiling,                            !- Surface Type
  ,                                       !- Construction Name
  {c65c5ab2-81e4-45fc-8932-19f0021ee3fd}, !- Space Name
  Outdoors,                               !- Outside Boundary Condition
  ,                                       !- Outside Boundary Condition Object
  SunExposed,                             !- Sun Exposure
  WindExposed,                            !- Wind Exposure
  ,                                       !- View Factor to Ground
  ,                                       !- Number of Vertices
  3.40776759770968, 3.40776759770968, 1.70388379885484, !- X,Y,Z Vertex 1 {m}
  0, 0, 0,                                !- X,Y,Z Vertex 2 {m}
  6.81553519541936, 0, 0;                 !- X,Y,Z Vertex 3 {m}

OS:Surface,
  {44916496-51d2-4917-b360-08efd09dc391}, !- Handle
  Surface 17,                             !- Name
  RoofCeiling,                            !- Surface Type
  ,                                       !- Construction Name
  {c65c5ab2-81e4-45fc-8932-19f0021ee3fd}, !- Space Name
  Outdoors,                               !- Outside Boundary Condition
  ,                                       !- Outside Boundary Condition Object
  SunExposed,                             !- Sun Exposure
  WindExposed,                            !- Wind Exposure
  ,                                       !- View Factor to Ground
  ,                                       !- Number of Vertices
  3.40776759770968, 10.223302793129, 1.70388379885484, !- X,Y,Z Vertex 1 {m}
  6.81553519541936, 13.6310703908387, 0,  !- X,Y,Z Vertex 2 {m}
  0, 13.6310703908387, 0;                 !- X,Y,Z Vertex 3 {m}

OS:Space,
  {c65c5ab2-81e4-45fc-8932-19f0021ee3fd}, !- Handle
  unfinished attic space,                 !- Name
  {e969c7f1-6a6a-4ed7-ae6f-067421af8b91}, !- Space Type Name
  ,                                       !- Default Construction Set Name
  ,                                       !- Default Schedule Set Name
  -0,                                     !- Direction of Relative North {deg}
  0,                                      !- X Origin {m}
  0,                                      !- Y Origin {m}
  4.8768,                                 !- Z Origin {m}
  ,                                       !- Building Story Name
  {f9ed7061-29be-4ee2-ba2e-f54dd7345ca3}; !- Thermal Zone Name

OS:ThermalZone,
  {f9ed7061-29be-4ee2-ba2e-f54dd7345ca3}, !- Handle
  unfinished attic zone,                  !- Name
  ,                                       !- Multiplier
  ,                                       !- Ceiling Height {m}
  ,                                       !- Volume {m3}
  ,                                       !- Floor Area {m2}
  ,                                       !- Zone Inside Convection Algorithm
  ,                                       !- Zone Outside Convection Algorithm
  ,                                       !- Zone Conditioning Equipment List Name
  {5b8c21de-a298-4bd5-836a-dc083bdc70a6}, !- Zone Air Inlet Port List
  {3f8204da-2a87-4925-afde-1d07b01f3ca0}, !- Zone Air Exhaust Port List
  {30522349-da71-4338-8424-4be2b8dfbcfb}, !- Zone Air Node Name
  ,                                       !- Zone Return Air Node Name
  ,                                       !- Primary Daylighting Control Name
  ,                                       !- Fraction of Zone Controlled by Primary Daylighting Control
  ,                                       !- Secondary Daylighting Control Name
  ,                                       !- Fraction of Zone Controlled by Secondary Daylighting Control
  ,                                       !- Illuminance Map Name
  ,                                       !- Group Rendering Name
  ,                                       !- Thermostat Name
  No;                                     !- Use Ideal Air Loads

OS:Node,
  {cbc7fc8f-823d-4588-b630-4db6392c6fc5}, !- Handle
  Node 2,                                 !- Name
  {30522349-da71-4338-8424-4be2b8dfbcfb}, !- Inlet Port
  ;                                       !- Outlet Port

OS:Connection,
  {30522349-da71-4338-8424-4be2b8dfbcfb}, !- Handle