!- NOTE: Auto-generated from /test/osw_files/SFD_2000sqft_1story_SL_GRG_FlatRoof.osw

OS:Version,
  {2c1fc950-e5a5-43fa-9865-e228a02deffa}, !- Handle
  2.4.1;                                  !- Version Identifier

OS:Building,
  {bf305633-c5a1-4881-9edf-ca5e1a8e1274}, !- Handle
  Building,                               !- Name
  ,                                       !- Building Sector Type
  ,                                       !- North Axis {deg}
  ,                                       !- Nominal Floor to Floor Height {m}
  ,                                       !- Space Type Name
  ,                                       !- Default Construction Set Name
  ,                                       !- Default Schedule Set Name
  1,                                      !- Standards Number of Stories
  1,                                      !- Standards Number of Above Ground Stories
  singlefamilydetached,                   !- Standards Building Type
  1;                                      !- Standards Number of Living Units

OS:YearDescription,
  {513d8dda-86cb-442a-b01c-1f7f0e0ac70e}; !- Handle

OS:SimulationControl,
  {2c487a4c-bac9-4ac5-b669-1e49d9da7c2b}, !- Handle
  ,                                       !- Do Zone Sizing Calculation
  ,                                       !- Do System Sizing Calculation
  ,                                       !- Do Plant Sizing Calculation
  No,                                     !- Run Simulation for Sizing Periods
  ;                                       !- Run Simulation for Weather File Run Periods

OS:Timestep,
  {4ebc9f1e-4707-402e-9844-67eb1ffbd522}, !- Handle
  6;                                      !- Number of Timesteps per Hour

OS:RunPeriod,
  {28df894d-6af9-4fb8-8f56-df1753344aa3}, !- Handle
  Run Period,                             !- Name
  1,                                      !- Begin Month
  1,                                      !- Begin Day of Month
  12,                                     !- End Month
  31,                                     !- End Day of Month
  ,                                       !- Use Weather File Holidays and Special Days
  ,                                       !- Use Weather File Daylight Saving Period
  ,                                       !- Apply Weekend Holiday Rule
  ,                                       !- Use Weather File Rain Indicators
  ,                                       !- Use Weather File Snow Indicators
  ;                                       !- Number of Times Runperiod to be Repeated

OS:Sizing:Parameters,
  {dde5af6f-7923-4600-a28a-7556673a0266}, !- Handle
  1.0,                                    !- Heating Sizing Factor
  1.0;                                    !- Cooling Sizing Factor

OS:ShadowCalculation,
  {ca758bea-4416-4626-9bba-3d8795c79bd6}, !- Handle
  20,                                     !- Calculation Frequency
  200;                                    !- Maximum Figures in Shadow Overlap Calculations

OS:SurfaceConvectionAlgorithm:Inside,
  {aaabfc36-718a-4ab0-b622-f186ebb45230}, !- Handle
  TARP;                                   !- Algorithm

OS:SurfaceConvectionAlgorithm:Outside,
  {9a0a9f6f-4bbd-4b12-a121-9492a1fcd7d6}, !- Handle
  DOE-2;                                  !- Algorithm

OS:HeatBalanceAlgorithm,
  {9d93e563-e1e0-46d7-9e39-d1c8aceb7212}, !- Handle
  ConductionTransferFunction,             !- Algorithm
  200;                                    !- Surface Temperature Upper Limit {C}

OS:ZoneCapacitanceMultiplier:ResearchSpecial,
  {6bfced16-b16f-47f6-8223-f7e267d75d19}, !- Handle
  ,                                       !- Temperature Capacity Multiplier
  15,                                     !- Humidity Capacity Multiplier
  ;                                       !- Carbon Dioxide Capacity Multiplier

OS:ThermalZone,
  {b64fe4c9-5148-4c3c-954d-d66363aef491}, !- Handle
  living zone,                            !- Name
  ,                                       !- Multiplier
  ,                                       !- Ceiling Height {m}
  ,                                       !- Volume {m3}
  ,                                       !- Floor Area {m2}
  ,                                       !- Zone Inside Convection Algorithm
  ,                                       !- Zone Outside Convection Algorithm
  ,                                       !- Zone Conditioning Equipment List Name
  {5a140fe5-a659-47c2-83e3-06e20493eece}, !- Zone Air Inlet Port List
  {40b7f5a9-c902-48c9-b163-afbce4acfcb0}, !- Zone Air Exhaust Port List
  {f7d10c65-a776-4c4e-82ca-b56fabc66f2e}, !- Zone Air Node Name
  ,                                       !- Zone Return Air Node Name
  ,                                       !- Primary Daylighting Control Name
  ,                                       !- Fraction of Zone Controlled by Primary Daylighting Control
  ,                                       !- Secondary Daylighting Control Name
  ,                                       !- Fraction of Zone Controlled by Secondary Daylighting Control
  ,                                       !- Illuminance Map Name
  ,                                       !- Group Rendering Name
  ,                                       !- Thermostat Name
  No;                                     !- Use Ideal Air Loads

OS:Node,
  {d192d005-5870-4e97-a882-84414199218b}, !- Handle
  Node 1,                                 !- Name
  {f7d10c65-a776-4c4e-82ca-b56fabc66f2e}, !- Inlet Port
  ;                                       !- Outlet Port

OS:Connection,
  {f7d10c65-a776-4c4e-82ca-b56fabc66f2e}, !- Handle
  {48e28448-fa79-42cb-a15f-2ee50afa438b}, !- Name
  {b64fe4c9-5148-4c3c-954d-d66363aef491}, !- Source Object
  11,                                     !- Outlet Port
  {d192d005-5870-4e97-a882-84414199218b}, !- Target Object
  2;                                      !- Inlet Port

OS:PortList,
  {5a140fe5-a659-47c2-83e3-06e20493eece}, !- Handle
  {342ded55-fe81-4d8b-b572-80fad5e19c59}, !- Name
  {b64fe4c9-5148-4c3c-954d-d66363aef491}; !- HVAC Component

OS:PortList,
  {40b7f5a9-c902-48c9-b163-afbce4acfcb0}, !- Handle
  {b4a802eb-5e36-481e-8917-2b846e20f7e9}, !- Name
  {b64fe4c9-5148-4c3c-954d-d66363aef491}; !- HVAC Component

OS:Sizing:Zone,
  {7dae950a-aa4d-495c-b64e-77a5ac69d55d}, !- Handle
  {b64fe4c9-5148-4c3c-954d-d66363aef491}, !- Zone or ZoneList Name
  SupplyAirTemperature,                   !- Zone Cooling Design Supply Air Temperature Input Method
  14,                                     !- Zone Cooling Design Supply Air Temperature {C}
  11.11,                                  !- Zone Cooling Design Supply Air Temperature Difference {deltaC}
  SupplyAirTemperature,                   !- Zone Heating Design Supply Air Temperature Input Method
  40,                                     !- Zone Heating Design Supply Air Temperature {C}
  11.11,                                  !- Zone Heating Design Supply Air Temperature Difference {deltaC}
  0.0085,                                 !- Zone Cooling Design Supply Air Humidity Ratio {kg-H2O/kg-air}
  0.008,                                  !- Zone Heating Design Supply Air Humidity Ratio {kg-H2O/kg-air}
  ,                                       !- Zone Heating Sizing Factor
  ,                                       !- Zone Cooling Sizing Factor
  DesignDay,                              !- Cooling Design Air Flow Method
  ,                                       !- Cooling Design Air Flow Rate {m3/s}
  ,                                       !- Cooling Minimum Air Flow per Zone Floor Area {m3/s-m2}
  ,                                       !- Cooling Minimum Air Flow {m3/s}
  ,                                       !- Cooling Minimum Air Flow Fraction
  DesignDay,                              !- Heating Design Air Flow Method
  ,                                       !- Heating Design Air Flow Rate {m3/s}
  ,                                       !- Heating Maximum Air Flow per Zone Floor Area {m3/s-m2}
  ,                                       !- Heating Maximum Air Flow {m3/s}
  ,                                       !- Heating Maximum Air Flow Fraction
  ,                                       !- Design Zone Air Distribution Effectiveness in Cooling Mode
  ,                                       !- Design Zone Air Distribution Effectiveness in Heating Mode
  No,                                     !- Account for Dedicated Outdoor Air System
  NeutralSupplyAir,                       !- Dedicated Outdoor Air System Control Strategy
  autosize,                               !- Dedicated Outdoor Air Low Setpoint Temperature for Design {C}
  autosize;                               !- Dedicated Outdoor Air High Setpoint Temperature for Design {C}

OS:ZoneHVAC:EquipmentList,
  {0bba17a6-d694-4ebd-83a7-df77e2b86a0f}, !- Handle
  Zone HVAC Equipment List 1,             !- Name
  {b64fe4c9-5148-4c3c-954d-d66363aef491}; !- Thermal Zone

OS:ThermalZone,
  {77f3a110-d50b-4476-a3ba-44fa7759ca2d}, !- Handle
  garage zone,                            !- Name
  ,                                       !- Multiplier
  ,                                       !- Ceiling Height {m}
  ,                                       !- Volume {m3}
  ,                                       !- Floor Area {m2}
  ,                                       !- Zone Inside Convection Algorithm
  ,                                       !- Zone Outside Convection Algorithm
  ,                                       !- Zone Conditioning Equipment List Name
  {2897a488-fbf3-4933-b940-66d77151f929}, !- Zone Air Inlet Port List
  {33d295e7-9dc1-4217-9a5f-9341a6a0b06d}, !- Zone Air Exhaust Port List
  {2e86aeaa-07c0-43f9-8397-474b44e8f285}, !- Zone Air Node Name
  ,                                       !- Zone Return Air Node Name
  ,                                       !- Primary Daylighting Control Name
  ,                                       !- Fraction of Zone Controlled by Primary Daylighting Control
  ,                                       !- Secondary Daylighting Control Name
  ,                                       !- Fraction of Zone Controlled by Secondary Daylighting Control
  ,                                       !- Illuminance Map Name
  ,                                       !- Group Rendering Name
  ,                                       !- Thermostat Name
  No;                                     !- Use Ideal Air Loads

OS:Node,
  {0205c0b6-5f9f-4723-ad08-48e335be6cd7}, !- Handle
  Node 2,                                 !- Name
  {2e86aeaa-07c0-43f9-8397-474b44e8f285}, !- Inlet Port
  ;                                       !- Outlet Port

OS:Connection,
  {2e86aeaa-07c0-43f9-8397-474b44e8f285}, !- Handle
  {2d47fe80-be62-44b2-9c80-2b44feddfa32}, !- Name
  {77f3a110-d50b-4476-a3ba-44fa7759ca2d}, !- Source Object
  11,                                     !- Outlet Port
  {0205c0b6-5f9f-4723-ad08-48e335be6cd7}, !- Target Object
  2;                                      !- Inlet Port

OS:PortList,
  {2897a488-fbf3-4933-b940-66d77151f929}, !- Handle
  {70c424d6-f59e-4b90-b96a-03f5a0d2d525}, !- Name
  {77f3a110-d50b-4476-a3ba-44fa7759ca2d}; !- HVAC Component

OS:PortList,
  {33d295e7-9dc1-4217-9a5f-9341a6a0b06d}, !- Handle
  {dbea5f89-1fb1-4439-9bc4-ecbb5e6f9031}, !- Name
  {77f3a110-d50b-4476-a3ba-44fa7759ca2d}; !- HVAC Component

OS:Sizing:Zone,
  {a9c4b3be-9986-418f-b70a-3f1bd9a1665e}, !- Handle
  {77f3a110-d50b-4476-a3ba-44fa7759ca2d}, !- Zone or ZoneList Name
  SupplyAirTemperature,                   !- Zone Cooling Design Supply Air Temperature Input Method
  14,                                     !- Zone Cooling Design Supply Air Temperature {C}
  11.11,                                  !- Zone Cooling Design Supply Air Temperature Difference {deltaC}
  SupplyAirTemperature,                   !- Zone Heating Design Supply Air Temperature Input Method
  40,                                     !- Zone Heating Design Supply Air Temperature {C}
  11.11,                                  !- Zone Heating Design Supply Air Temperature Difference {deltaC}
  0.0085,                                 !- Zone Cooling Design Supply Air Humidity Ratio {kg-H2O/kg-air}
  0.008,                                  !- Zone Heating Design Supply Air Humidity Ratio {kg-H2O/kg-air}
  ,                                       !- Zone Heating Sizing Factor
  ,                                       !- Zone Cooling Sizing Factor
  DesignDay,                              !- Cooling Design Air Flow Method
  ,                                       !- Cooling Design Air Flow Rate {m3/s}
  ,                                       !- Cooling Minimum Air Flow per Zone Floor Area {m3/s-m2}
  ,                                       !- Cooling Minimum Air Flow {m3/s}
  ,                                       !- Cooling Minimum Air Flow Fraction
  DesignDay,                              !- Heating Design Air Flow Method
  ,                                       !- Heating Design Air Flow Rate {m3/s}
  ,                                       !- Heating Maximum Air Flow per Zone Floor Area {m3/s-m2}
  ,                                       !- Heating Maximum Air Flow {m3/s}
  ,                                       !- Heating Maximum Air Flow Fraction
  ,                                       !- Design Zone Air Distribution Effectiveness in Cooling Mode
  ,                                       !- Design Zone Air Distribution Effectiveness in Heating Mode
  No,                                     !- Account for Dedicated Outdoor Air System
  NeutralSupplyAir,                       !- Dedicated Outdoor Air System Control Strategy
  autosize,                               !- Dedicated Outdoor Air Low Setpoint Temperature for Design {C}
  autosize;                               !- Dedicated Outdoor Air High Setpoint Temperature for Design {C}

OS:ZoneHVAC:EquipmentList,
  {4e08c7ed-a068-48f9-b0a4-5e0d44e5968e}, !- Handle
  Zone HVAC Equipment List 2,             !- Name
  {77f3a110-d50b-4476-a3ba-44fa7759ca2d}; !- Thermal Zone

OS:Space,
  {3e1f19f8-fdbf-4189-95f8-e40dd8e6ad8d}, !- Handle
  garage space,                           !- Name
  ,                                       !- Space Type Name
  ,                                       !- Default Construction Set Name
  ,                                       !- Default Schedule Set Name
  -0,                                     !- Direction of Relative North {deg}
  0,                                      !- X Origin {m}
  0,                                      !- Y Origin {m}
  0,                                      !- Z Origin {m}
  ,                                       !- Building Story Name
  {77f3a110-d50b-4476-a3ba-44fa7759ca2d}; !- Thermal Zone Name

OS:Surface,
  {07445b55-0423-45ca-ab4d-c2ec67e01506}, !- Handle
  Surface 1,                              !- Name
  Floor,                                  !- Surface Type
  ,                                       !- Construction Name
  {3e1f19f8-fdbf-4189-95f8-e40dd8e6ad8d}, !- Space Name
  Foundation,                             !- Outside Boundary Condition
  ,                                       !- Outside Boundary Condition Object
  NoSun,                                  !- Sun Exposure
  NoWind,                                 !- Wind Exposure
  ,                                       !- View Factor to Ground
  ,                                       !- Number of Vertices
  14.1221447220065, -3.048, 0,            !- X,Y,Z Vertex 1 {m}
  14.1221447220065, 3.048, 0,             !- X,Y,Z Vertex 2 {m}
  20.2181447220065, 3.048, 0,             !- X,Y,Z Vertex 3 {m}
  20.2181447220065, -3.048, 0;            !- X,Y,Z Vertex 4 {m}

OS:Surface,
  {63376508-e87e-420b-af1c-fdabb6ac6846}, !- Handle
  Surface 2,                              !- Name
  Wall,                                   !- Surface Type
  ,                                       !- Construction Name
  {3e1f19f8-fdbf-4189-95f8-e40dd8e6ad8d}, !- Space Name
  Surface,                                !- Outside Boundary Condition
  {054880a1-d518-4ef1-94a1-3fcf76a6a8b9}, !- Outside Boundary Condition Object
  NoSun,                                  !- Sun Exposure
  NoWind,                                 !- Wind Exposure
  ,                                       !- View Factor to Ground
  ,                                       !- Number of Vertices
  14.1221447220065, 3.048, 2.4384,        !- X,Y,Z Vertex 1 {m}
  14.1221447220065, 3.048, 0,             !- X,Y,Z Vertex 2 {m}
  14.1221447220065, 0, 0,                 !- X,Y,Z Vertex 3 {m}
  14.1221447220065, 0, 2.4384;            !- X,Y,Z Vertex 4 {m}

OS:Surface,
  {59126790-c3a9-4893-b2cc-67b3d1225716}, !- Handle
  Surface 3,                              !- Name
  Wall,                                   !- Surface Type
  ,                                       !- Construction Name
  {3e1f19f8-fdbf-4189-95f8-e40dd8e6ad8d}, !- Space Name
  Surface,                                !- Outside Boundary Condition
  {9dec5414-5b44-4c15-b62d-d6a2973cf593}, !- Outside Boundary Condition Object
  NoSun,                                  !- Sun Exposure
  NoWind,                                 !- Wind Exposure
  ,                                       !- View Factor to Ground
  ,                                       !- Number of Vertices
  20.2181447220065, 3.048, 2.4384,        !- X,Y,Z Vertex 1 {m}
  20.2181447220065, 3.048, 0,             !- X,Y,Z Vertex 2 {m}
  14.1221447220065, 3.048, 0,             !- X,Y,Z Vertex 3 {m}
  14.1221447220065, 3.048, 2.4384;        !- X,Y,Z Vertex 4 {m}

OS:Surface,
  {7ca47cae-e494-496a-a2fb-3e3dae3b53fa}, !- Handle
  Surface 4,                              !- Name
  Wall,                                   !- Surface Type
  ,                                       !- Construction Name
  {3e1f19f8-fdbf-4189-95f8-e40dd8e6ad8d}, !- Space Name
  Outdoors,                               !- Outside Boundary Condition
  ,                                       !- Outside Boundary Condition Object
  SunExposed,                             !- Sun Exposure
  WindExposed,                            !- Wind Exposure
  ,                                       !- View Factor to Ground
  ,                                       !- Number of Vertices
  20.2181447220065, -3.048, 2.4384,       !- X,Y,Z Vertex 1 {m}
  20.2181447220065, -3.048, 0,            !- X,Y,Z Vertex 2 {m}
  20.2181447220065, 3.048, 0,             !- X,Y,Z Vertex 3 {m}
  20.2181447220065, 3.048, 2.4384;        !- X,Y,Z Vertex 4 {m}

OS:Surface,
  {717acfe8-b474-43e5-bbb1-276e30f08e7f}, !- Handle
  Surface 5,                              !- Name
  Wall,                                   !- Surface Type
  ,                                       !- Construction Name
  {3e1f19f8-fdbf-4189-95f8-e40dd8e6ad8d}, !- Space Name
  Outdoors,                               !- Outside Boundary Condition
  ,                                       !- Outside Boundary Condition Object
  SunExposed,                             !- Sun Exposure
  WindExposed,                            !- Wind Exposure
  ,                                       !- View Factor to Ground
  ,                                       !- Number of Vertices
  14.1221447220065, -3.048, 2.4384,       !- X,Y,Z Vertex 1 {m}
  14.1221447220065, -3.048, 0,            !- X,Y,Z Vertex 2 {m}
  20.2181447220065, -3.048, 0,            !- X,Y,Z Vertex 3 {m}
  20.2181447220065, -3.048, 2.4384;       !- X,Y,Z Vertex 4 {m}

OS:Surface,
  {a5417b94-704c-438f-8b24-c4e605c784ed}, !- Handle
  Surface 6,                              !- Name
  RoofCeiling,                            !- Surface Type
  ,                                       !- Construction Name
  {3e1f19f8-fdbf-4189-95f8-e40dd8e6ad8d}, !- Space Name
  Outdoors,                               !- Outside Boundary Condition
  ,                                       !- Outside Boundary Condition Object
  SunExposed,                             !- Sun Exposure
  WindExposed,                            !- Wind Exposure
  ,                                       !- View Factor to Ground
  ,                                       !- Number of Vertices
  20.2181447220065, -3.048, 2.4384,       !- X,Y,Z Vertex 1 {m}
  20.2181447220065, 3.048, 2.4384,        !- X,Y,Z Vertex 2 {m}
  14.1221447220065, 3.048, 2.4384,        !- X,Y,Z Vertex 3 {m}
  14.1221447220065, -3.048, 2.4384;       !- X,Y,Z Vertex 4 {m}

OS:Space,
  {cda45f43-a9f7-4791-a68b-98bd1ac37449}, !- Handle
  living space,                           !- Name
  ,                                       !- Space Type Name
  ,                                       !- Default Construction Set Name
  ,                                       !- Default Schedule Set Name
  -0,                                     !- Direction of Relative North {deg}
  0,                                      !- X Origin {m}
  0,                                      !- Y Origin {m}
  0,                                      !- Z Origin {m}
  ,                                       !- Building Story Name
  {b64fe4c9-5148-4c3c-954d-d66363aef491}, !- Thermal Zone Name
  ,                                       !- Part of Total Floor Area
  ,                                       !- Design Specification Outdoor Air Object Name
  {4d11fe57-13a8-46f8-92a6-ee7e13fc253b}; !- Building Unit Name

OS:Surface,
  {c58777a4-6209-4af0-a0ee-fc8b20497f7c}, !- Handle
  Surface 7,                              !- Name
  Floor,                                  !- Surface Type
  ,                                       !- Construction Name
  {cda45f43-a9f7-4791-a68b-98bd1ac37449}, !- Space Name
  Foundation,                             !- Outside Boundary Condition
  ,                                       !- Outside Boundary Condition Object
  NoSun,                                  !- Sun Exposure
  NoWind,                                 !- Wind Exposure
  ,                                       !- View Factor to Ground
  ,                                       !- Number of Vertices
  0, 0, 0,                                !- X,Y,Z Vertex 1 {m}
  0, 10.1090723610033, 0,                 !- X,Y,Z Vertex 2 {m}
  20.2181447220065, 10.1090723610033, 0,  !- X,Y,Z Vertex 3 {m}
  20.2181447220065, 3.048, 0,             !- X,Y,Z Vertex 4 {m}
  14.1221447220065, 3.048, 0,             !- X,Y,Z Vertex 5 {m}
  14.1221447220065, 0, 0;                 !- X,Y,Z Vertex 6 {m}

OS:Surface,
  {91e3e094-43a3-4b2a-9f80-141d5035e8db}, !- Handle
  Surface 8,                              !- Name
  Wall,                                   !- Surface Type
  ,                                       !- Construction Name
  {cda45f43-a9f7-4791-a68b-98bd1ac37449}, !- Space Name
  Outdoors,                               !- Outside Boundary Condition
  ,                                       !- Outside Boundary Condition Object
  SunExposed,                             !- Sun Exposure
  WindExposed,                            !- Wind Exposure
  ,                                       !- View Factor to Ground
  ,                                       !- Number of Vertices
  0, 10.1090723610033, 2.4384,            !- X,Y,Z Vertex 1 {m}
  0, 10.1090723610033, 0,                 !- X,Y,Z Vertex 2 {m}
  0, 0, 0,                                !- X,Y,Z Vertex 3 {m}
  0, 0, 2.4384;                           !- X,Y,Z Vertex 4 {m}

OS:Surface,
  {d65ed2c9-1e30-4b51-b3cd-6d1907f648ce}, !- Handle
  Surface 9,                              !- Name
  Wall,                                   !- Surface Type
  ,                                       !- Construction Name
  {cda45f43-a9f7-4791-a68b-98bd1ac37449}, !- Space Name
  Outdoors,                               !- Outside Boundary Condition
  ,                                       !- Outside Boundary Condition Object
  SunExposed,                             !- Sun Exposure
  WindExposed,                            !- Wind Exposure
  ,                                       !- View Factor to Ground
  ,                                       !- Number of Vertices
  20.2181447220065, 10.1090723610033, 2.4384, !- X,Y,Z Vertex 1 {m}
  20.2181447220065, 10.1090723610033, 0,  !- X,Y,Z Vertex 2 {m}
  0, 10.1090723610033, 0,                 !- X,Y,Z Vertex 3 {m}
  0, 10.1090723610033, 2.4384;            !- X,Y,Z Vertex 4 {m}

OS:Surface,
  {dbdc9509-02ac-49e0-b515-7dab8d4ddf62}, !- Handle
  Surface 10,                             !- Name
  Wall,                                   !- Surface Type
  ,                                       !- Construction Name
  {cda45f43-a9f7-4791-a68b-98bd1ac37449}, !- Space Name
  Outdoors,                               !- Outside Boundary Condition
  ,                                       !- Outside Boundary Condition Object
  SunExposed,                             !- Sun Exposure
  WindExposed,                            !- Wind Exposure
  ,                                       !- View Factor to Ground
  ,                                       !- Number of Vertices
  20.2181447220065, 3.048, 2.4384,        !- X,Y,Z Vertex 1 {m}
  20.2181447220065, 3.048, 0,             !- X,Y,Z Vertex 2 {m}
  20.2181447220065, 10.1090723610033, 0,  !- X,Y,Z Vertex 3 {m}
  20.2181447220065, 10.1090723610033, 2.4384; !- X,Y,Z Vertex 4 {m}

OS:Surface,
  {9dec5414-5b44-4c15-b62d-d6a2973cf593}, !- Handle
  Surface 11,                             !- Name
  Wall,                                   !- Surface Type
  ,                                       !- Construction Name
  {cda45f43-a9f7-4791-a68b-98bd1ac37449}, !- Space Name
  Surface,                                !- Outside Boundary Condition
  {59126790-c3a9-4893-b2cc-67b3d1225716}, !- Outside Boundary Condition Object
  NoSun,                                  !- Sun Exposure
  NoWind,                                 !- Wind Exposure
  ,                                       !- View Factor to Ground
  ,                                       !- Number of Vertices
  14.1221447220065, 3.048, 2.4384,        !- X,Y,Z Vertex 1 {m}
  14.1221447220065, 3.048, 0,             !- X,Y,Z Vertex 2 {m}
  20.2181447220065, 3.048, 0,             !- X,Y,Z Vertex 3 {m}
  20.2181447220065, 3.048, 2.4384;        !- X,Y,Z Vertex 4 {m}

OS:Surface,
  {054880a1-d518-4ef1-94a1-3fcf76a6a8b9}, !- Handle
  Surface 12,                             !- Name
  Wall,                                   !- Surface Type
  ,                                       !- Construction Name
  {cda45f43-a9f7-4791-a68b-98bd1ac37449}, !- Space Name
  Surface,                                !- Outside Boundary Condition
  {63376508-e87e-420b-af1c-fdabb6ac6846}, !- Outside Boundary Condition Object
  NoSun,                                  !- Sun Exposure
  NoWind,                                 !- Wind Exposure
  ,                                       !- View Factor to Ground
  ,                                       !- Number of Vertices
  14.1221447220065, 0, 2.4384,            !- X,Y,Z Vertex 1 {m}
  14.1221447220065, 0, 0,                 !- X,Y,Z Vertex 2 {m}
  14.1221447220065, 3.048, 0,             !- X,Y,Z Vertex 3 {m}
  14.1221447220065, 3.048, 2.4384;        !- X,Y,Z Vertex 4 {m}

OS:Surface,
  {0e20411d-9130-4835-b435-c326f5ff27b2}, !- Handle
  Surface 13,                             !- Name
  Wall,                                   !- Surface Type
  ,                                       !- Construction Name
  {cda45f43-a9f7-4791-a68b-98bd1ac37449}, !- Space Name
  Outdoors,                               !- Outside Boundary Condition
  ,                                       !- Outside Boundary Condition Object
  SunExposed,                             !- Sun Exposure
  WindExposed,                            !- Wind Exposure
  ,                                       !- View Factor to Ground
  ,                                       !- Number of Vertices
  0, 0, 2.4384,                           !- X,Y,Z Vertex 1 {m}
  0, 0, 0,                                !- X,Y,Z Vertex 2 {m}
  14.1221447220065, 0, 0,                 !- X,Y,Z Vertex 3 {m}
  14.1221447220065, 0, 2.4384;            !- X,Y,Z Vertex 4 {m}

OS:Surface,
  {1684a5b3-b28c-4ee5-bb93-4ec7dc61c733}, !- Handle
  Surface 14,                             !- Name
  RoofCeiling,                            !- Surface Type
  ,                                       !- Construction Name
  {cda45f43-a9f7-4791-a68b-98bd1ac37449}, !- Space Name
  Outdoors,                               !- Outside Boundary Condition
  ,                                       !- Outside Boundary Condition Object
  SunExposed,                             !- Sun Exposure
  WindExposed,                            !- Wind Exposure
  ,                                       !- View Factor to Ground
  ,                                       !- Number of Vertices
  14.1221447220065, 0, 2.4384,            !- X,Y,Z Vertex 1 {m}
  14.1221447220065, 3.048, 2.4384,        !- X,Y,Z Vertex 2 {m}
  20.2181447220065, 3.048, 2.4384,        !- X,Y,Z Vertex 3 {m}
  20.2181447220065, 10.1090723610033, 2.4384, !- X,Y,Z Vertex 4 {m}
  0, 10.1090723610033, 2.4384,            !- X,Y,Z Vertex 5 {m}
  0, 0, 2.4384;                           !- X,Y,Z Vertex 6 {m}

OS:Surface,
  {b9f4ea7a-adac-415b-9fe6-f8b9cac9681e}, !- Handle
  Surface 15,                             !- Name
  Wall,                                   !- Surface Type
  ,                                       !- Construction Name
  {3e1f19f8-fdbf-4189-95f8-e40dd8e6ad8d}, !- Space Name
  Outdoors,                               !- Outside Boundary Condition
  ,                                       !- Outside Boundary Condition Object
  SunExposed,                             !- Sun Exposure
  WindExposed,                            !- Wind Exposure
  ,                                       !- View Factor to Ground
  ,                                       !- Number of Vertices