!- NOTE: Auto-generated from /test/osw_files/SFA_10units_2story_FB_UA_3Beds_2Baths_Denver.osw

OS:Version,
  {af9980f7-7bc8-467a-abd0-2d7b4c0b121f}, !- Handle
  2.5.1;                                  !- Version Identifier

OS:Building,
  {e99d5d77-8b6a-4805-9737-3b6cde7361a7}, !- Handle
  Building 1,                             !- Name
  ,                                       !- Building Sector Type
  0,                                      !- North Axis {deg}
  ,                                       !- Nominal Floor to Floor Height {m}
  ,                                       !- Space Type Name
  ,                                       !- Default Construction Set Name
  ,                                       !- Default Schedule Set Name
  3,                                      !- Standards Number of Stories
  2,                                      !- Standards Number of Above Ground Stories
  singlefamilyattached,                   !- Standards Building Type
  10;                                     !- Standards Number of Living Units

OS:Facility,
  {9f36ca38-44cf-4bcd-8978-cdf08d8c2525}; !- Handle

OS:Site,
  {9580e01f-dd3e-4f66-8760-797973f1cc44}, !- Handle
  Denver Intl Ap_CO_USA,                  !- Name
  39.83,                                  !- Latitude {deg}
  -104.65,                                !- Longitude {deg}
  -7,                                     !- Time Zone {hr}
  1650,                                   !- Elevation {m}
  ;                                       !- Terrain

OS:SimulationControl,
  {9f40275d-b53b-4f71-b425-f763ce5693db}, !- Handle
  ,                                       !- Do Zone Sizing Calculation
  ,                                       !- Do System Sizing Calculation
  ,                                       !- Do Plant Sizing Calculation
  No;                                     !- Run Simulation for Sizing Periods

OS:Sizing:Parameters,
  {85b0b30d-f5e2-4caa-a50f-eadd0b3d2feb}, !- Handle
  1.25,                                   !- Heating Sizing Factor
  1.15;                                   !- Cooling Sizing Factor

OS:Timestep,
  {13e8fedd-1235-4ee0-9733-eafd46a9201e}, !- Handle
  6;                                      !- Number of Timesteps per Hour

OS:ShadowCalculation,
  {5f4b8827-a589-421e-b627-2dbb6468af52}, !- Handle
  20,                                     !- Calculation Frequency
  200;                                    !- Maximum Figures in Shadow Overlap Calculations

OS:HeatBalanceAlgorithm,
  {3bd1ead4-3017-4383-ba20-a4674eddaac9}, !- Handle
  ConductionTransferFunction,             !- Algorithm
  200;                                    !- Surface Temperature Upper Limit {C}

OS:RunPeriod,
  {af816895-ba80-4d75-bd69-14cce50c7a26}, !- Handle
  Run Period 1,                           !- Name
  1,                                      !- Begin Month
  1,                                      !- Begin Day of Month
  12,                                     !- End Month
  31,                                     !- End Day of Month
  ,                                       !- Use Weather File Holidays and Special Days
  ,                                       !- Use Weather File Daylight Saving Period
  ,                                       !- Apply Weekend Holiday Rule
  ,                                       !- Use Weather File Rain Indicators
  ,                                       !- Use Weather File Snow Indicators
  ;                                       !- Number of Times Runperiod to be Repeated

OS:LifeCycleCost:Parameters,
  {b12cb1ae-9ec4-4a8a-afdb-7aeb879cf885}, !- Handle
  ,                                       !- Analysis Type
  ,                                       !- Discounting Convention
  ,                                       !- Inflation Approach
  ,                                       !- Real Discount Rate
  ,                                       !- Nominal Discount Rate
  ,                                       !- Inflation
  ,                                       !- Base Date Month
  ,                                       !- Base Date Year
  ,                                       !- Service Date Month
  ,                                       !- Service Date Year
  ;                                       !- Length of Study Period in Years

OS:ThermalZone,
  {e51c8acd-47e5-43df-a99e-375137c57c62}, !- Handle
  living zone,                            !- Name
  ,                                       !- Multiplier
  ,                                       !- Ceiling Height {m}
  ,                                       !- Volume {m3}
  ,                                       !- Floor Area {m2}
  ,                                       !- Zone Inside Convection Algorithm
  ,                                       !- Zone Outside Convection Algorithm
  ,                                       !- Zone Conditioning Equipment List Name
  {723de1de-39e3-4835-b5d9-6a96c6ae9817}, !- Zone Air Inlet Port List
  {721a1e66-9e80-4e89-8dc4-22f7694e4d0f}, !- Zone Air Exhaust Port List
  {346e7b74-cc5d-417a-93b3-90ef79502aa8}, !- Zone Air Node Name
  ,                                       !- Zone Return Air Node Name
  ,                                       !- Primary Daylighting Control Name
  ,                                       !- Fraction of Zone Controlled by Primary Daylighting Control
  ,                                       !- Secondary Daylighting Control Name
  ,                                       !- Fraction of Zone Controlled by Secondary Daylighting Control
  ,                                       !- Illuminance Map Name
  ,                                       !- Group Rendering Name
  ,                                       !- Thermostat Name
  No;                                     !- Use Ideal Air Loads

OS:Node,
  {39a0db3d-77c4-4c10-8338-c78deb3e7e81}, !- Handle
  Node 1,                                 !- Name
  {346e7b74-cc5d-417a-93b3-90ef79502aa8}, !- Inlet Port
  ;                                       !- Outlet Port

OS:Connection,
  {346e7b74-cc5d-417a-93b3-90ef79502aa8}, !- Handle
  {4866aae6-ad5a-481b-9619-dc542025e29e}, !- Name
  {e51c8acd-47e5-43df-a99e-375137c57c62}, !- Source Object
  11,                                     !- Outlet Port
  {39a0db3d-77c4-4c10-8338-c78deb3e7e81}, !- Target Object
  2;                                      !- Inlet Port

OS:PortList,
  {723de1de-39e3-4835-b5d9-6a96c6ae9817}, !- Handle
  {5210a683-73ed-43be-be53-b25b195008e9}, !- Name
  {e51c8acd-47e5-43df-a99e-375137c57c62}; !- HVAC Component

OS:PortList,
  {721a1e66-9e80-4e89-8dc4-22f7694e4d0f}, !- Handle
  {99dce787-9075-4f04-9e92-7e254a9e6ded}, !- Name
  {e51c8acd-47e5-43df-a99e-375137c57c62}; !- HVAC Component

OS:Sizing:Zone,
  {afe5e01f-186d-4acc-8fbb-2d5574ed7ae3}, !- Handle
  {e51c8acd-47e5-43df-a99e-375137c57c62}, !- Zone or ZoneList Name
  SupplyAirTemperature,                   !- Zone Cooling Design Supply Air Temperature Input Method
  14,                                     !- Zone Cooling Design Supply Air Temperature {C}
  11.11,                                  !- Zone Cooling Design Supply Air Temperature Difference {deltaC}
  SupplyAirTemperature,                   !- Zone Heating Design Supply Air Temperature Input Method
  40,                                     !- Zone Heating Design Supply Air Temperature {C}
  11.11,                                  !- Zone Heating Design Supply Air Temperature Difference {deltaC}
  0.0085,                                 !- Zone Cooling Design Supply Air Humidity Ratio {kg-H2O/kg-air}
  0.008,                                  !- Zone Heating Design Supply Air Humidity Ratio {kg-H2O/kg-air}
  ,                                       !- Zone Heating Sizing Factor
  ,                                       !- Zone Cooling Sizing Factor
  DesignDay,                              !- Cooling Design Air Flow Method
  ,                                       !- Cooling Design Air Flow Rate {m3/s}
  ,                                       !- Cooling Minimum Air Flow per Zone Floor Area {m3/s-m2}
  ,                                       !- Cooling Minimum Air Flow {m3/s}
  ,                                       !- Cooling Minimum Air Flow Fraction
  DesignDay,                              !- Heating Design Air Flow Method
  ,                                       !- Heating Design Air Flow Rate {m3/s}
  ,                                       !- Heating Maximum Air Flow per Zone Floor Area {m3/s-m2}
  ,                                       !- Heating Maximum Air Flow {m3/s}
  ,                                       !- Heating Maximum Air Flow Fraction
  ,                                       !- Design Zone Air Distribution Effectiveness in Cooling Mode
  ,                                       !- Design Zone Air Distribution Effectiveness in Heating Mode
  No,                                     !- Account for Dedicated Outdoor Air System
  NeutralSupplyAir,                       !- Dedicated Outdoor Air System Control Strategy
  autosize,                               !- Dedicated Outdoor Air Low Setpoint Temperature for Design {C}
  autosize;                               !- Dedicated Outdoor Air High Setpoint Temperature for Design {C}

OS:ZoneHVAC:EquipmentList,
  {376e6b77-9409-41b3-8b2b-a03b770d475f}, !- Handle
  Zone HVAC Equipment List 1,             !- Name
  {e51c8acd-47e5-43df-a99e-375137c57c62}; !- Thermal Zone

OS:Space,
  {19fc9ce1-e60c-4624-905c-132108763157}, !- Handle
  living space,                           !- Name
  {1e1598a4-f818-4490-86e6-e1a4f476ca57}, !- Space Type Name
  ,                                       !- Default Construction Set Name
  ,                                       !- Default Schedule Set Name
  ,                                       !- Direction of Relative North {deg}
  ,                                       !- X Origin {m}
  ,                                       !- Y Origin {m}
  ,                                       !- Z Origin {m}
  ,                                       !- Building Story Name
  {e51c8acd-47e5-43df-a99e-375137c57c62}, !- Thermal Zone Name
  ,                                       !- Part of Total Floor Area
  ,                                       !- Design Specification Outdoor Air Object Name
  {139c4582-bd42-46ca-96e5-0d58968a0fd9}; !- Building Unit Name

OS:Surface,
  {07967ad7-0a24-4fbc-967d-82c6a0c78f42}, !- Handle
  Surface 1,                              !- Name
  Floor,                                  !- Surface Type
  ,                                       !- Construction Name
  {19fc9ce1-e60c-4624-905c-132108763157}, !- Space Name
  Surface,                                !- Outside Boundary Condition
  {e7c4382e-adb5-46c3-93f7-1fda6d2c6b91}, !- Outside Boundary Condition Object
  NoSun,                                  !- Sun Exposure
  NoWind,                                 !- Wind Exposure
  ,                                       !- View Factor to Ground
  ,                                       !- Number of Vertices
  0, -7.46604473600313, 0,                !- X,Y,Z Vertex 1 {m}
  0, 0, 0,                                !- X,Y,Z Vertex 2 {m}
  3.73302236800156, 0, 0,                 !- X,Y,Z Vertex 3 {m}
  3.73302236800156, -7.46604473600313, 0; !- X,Y,Z Vertex 4 {m}

OS:Surface,
  {42393f1c-6bef-4270-bdfd-ec3161a7fd0a}, !- Handle
  Surface 2,                              !- Name
  Wall,                                   !- Surface Type
  ,                                       !- Construction Name
  {19fc9ce1-e60c-4624-905c-132108763157}, !- Space Name
  Outdoors,                               !- Outside Boundary Condition
  ,                                       !- Outside Boundary Condition Object
  SunExposed,                             !- Sun Exposure
  WindExposed,                            !- Wind Exposure
  ,                                       !- View Factor to Ground
  ,                                       !- Number of Vertices
  0, 0, 2.4384,                           !- X,Y,Z Vertex 1 {m}
  0, 0, 0,                                !- X,Y,Z Vertex 2 {m}
  0, -7.46604473600313, 0,                !- X,Y,Z Vertex 3 {m}
  0, -7.46604473600313, 2.4384;           !- X,Y,Z Vertex 4 {m}

OS:Surface,
  {8884370e-7230-4cf6-acab-3f9d3e1a9941}, !- Handle
  Surface 3,                              !- Name
  Wall,                                   !- Surface Type
  ,                                       !- Construction Name
  {19fc9ce1-e60c-4624-905c-132108763157}, !- Space Name
  Outdoors,                               !- Outside Boundary Condition
  ,                                       !- Outside Boundary Condition Object
  SunExposed,                             !- Sun Exposure
  WindExposed,                            !- Wind Exposure
  ,                                       !- View Factor to Ground
  ,                                       !- Number of Vertices
  3.73302236800156, 0, 2.4384,            !- X,Y,Z Vertex 1 {m}
  3.73302236800156, 0, 0,                 !- X,Y,Z Vertex 2 {m}
  0, 0, 0,                                !- X,Y,Z Vertex 3 {m}
  0, 0, 2.4384;                           !- X,Y,Z Vertex 4 {m}

OS:Surface,
  {0230ba05-b30c-4f8f-b121-830163636d34}, !- Handle
  Surface 4,                              !- Name
  Wall,                                   !- Surface Type
  ,                                       !- Construction Name
  {19fc9ce1-e60c-4624-905c-132108763157}, !- Space Name
  Surface,                                !- Outside Boundary Condition
  {46b999c6-443f-4445-8742-a755a4c10f3b}, !- Outside Boundary Condition Object
  NoSun,                                  !- Sun Exposure
  NoWind,                                 !- Wind Exposure
  ,                                       !- View Factor to Ground
  ,                                       !- Number of Vertices
  3.73302236800156, -7.46604473600313, 2.4384, !- X,Y,Z Vertex 1 {m}
  3.73302236800156, -7.46604473600313, 0, !- X,Y,Z Vertex 2 {m}
  3.73302236800156, 0, 0,                 !- X,Y,Z Vertex 3 {m}
  3.73302236800156, 0, 2.4384;            !- X,Y,Z Vertex 4 {m}

OS:Surface,
  {7109484d-59e8-4ff3-a595-329f260bbab5}, !- Handle
  Surface 5,                              !- Name
  Wall,                                   !- Surface Type
  ,                                       !- Construction Name
  {19fc9ce1-e60c-4624-905c-132108763157}, !- Space Name
  Outdoors,                               !- Outside Boundary Condition
  ,                                       !- Outside Boundary Condition Object
  SunExposed,                             !- Sun Exposure
  WindExposed,                            !- Wind Exposure
  ,                                       !- View Factor to Ground
  ,                                       !- Number of Vertices
  0, -7.46604473600313, 2.4384,           !- X,Y,Z Vertex 1 {m}
  0, -7.46604473600313, 0,                !- X,Y,Z Vertex 2 {m}
  3.73302236800156, -7.46604473600313, 0, !- X,Y,Z Vertex 3 {m}
  3.73302236800156, -7.46604473600313, 2.4384; !- X,Y,Z Vertex 4 {m}

OS:Surface,
  {aa6fa876-f3c5-4126-90e9-19ce8a17b5f6}, !- Handle
  Surface 6,                              !- Name
  RoofCeiling,                            !- Surface Type
  ,                                       !- Construction Name
  {19fc9ce1-e60c-4624-905c-132108763157}, !- Space Name
  Surface,                                !- Outside Boundary Condition
  {0747a2f5-1a06-44bd-b84c-267574337dd2}, !- Outside Boundary Condition Object
  NoSun,                                  !- Sun Exposure
  NoWind,                                 !- Wind Exposure
  ,                                       !- View Factor to Ground
  ,                                       !- Number of Vertices
  3.73302236800156, -7.46604473600313, 2.4384, !- X,Y,Z Vertex 1 {m}
  3.73302236800156, 0, 2.4384,            !- X,Y,Z Vertex 2 {m}
  0, 0, 2.4384,                           !- X,Y,Z Vertex 3 {m}
  0, -7.46604473600313, 2.4384;           !- X,Y,Z Vertex 4 {m}

OS:SpaceType,
  {1e1598a4-f818-4490-86e6-e1a4f476ca57}, !- Handle
  Space Type 1,                           !- Name
  ,                                       !- Default Construction Set Name
  ,                                       !- Default Schedule Set Name
  ,                                       !- Group Rendering Name
  ,                                       !- Design Specification Outdoor Air Object Name
  ,                                       !- Standards Building Type
  living;                                 !- Standards Space Type

OS:Space,
  {4841297a-54c3-4b5f-98c9-80f8cad06482}, !- Handle
  living space|story 2,                   !- Name
  {1e1598a4-f818-4490-86e6-e1a4f476ca57}, !- Space Type Name
  ,                                       !- Default Construction Set Name
  ,                                       !- Default Schedule Set Name
  -0,                                     !- Direction of Relative North {deg}
  0,                                      !- X Origin {m}
  0,                                      !- Y Origin {m}
  2.4384,                                 !- Z Origin {m}
  ,                                       !- Building Story Name
  {e51c8acd-47e5-43df-a99e-375137c57c62}, !- Thermal Zone Name
  ,                                       !- Part of Total Floor Area
  ,                                       !- Design Specification Outdoor Air Object Name
  {139c4582-bd42-46ca-96e5-0d58968a0fd9}; !- Building Unit Name

OS:Surface,
  {9c70344e-3c10-4151-b287-7e0dc91c08ed}, !- Handle
  Surface 7,                              !- Name
  Wall,                                   !- Surface Type
  ,                                       !- Construction Name
  {4841297a-54c3-4b5f-98c9-80f8cad06482}, !- Space Name
  Outdoors,                               !- Outside Boundary Condition
  ,                                       !- Outside Boundary Condition Object
  SunExposed,                             !- Sun Exposure
  WindExposed,                            !- Wind Exposure
  ,                                       !- View Factor to Ground
  ,                                       !- Number of Vertices
  0, 0, 2.4384,                           !- X,Y,Z Vertex 1 {m}
  0, 0, 0,                                !- X,Y,Z Vertex 2 {m}
  0, -7.46604473600313, 0,                !- X,Y,Z Vertex 3 {m}
  0, -7.46604473600313, 2.4384;           !- X,Y,Z Vertex 4 {m}

OS:Surface,
  {48fa7b90-a6d5-4862-bc54-2868d2f4f16c}, !- Handle
  Surface 8,                              !- Name
  Wall,                                   !- Surface Type
  ,                                       !- Construction Name
  {4841297a-54c3-4b5f-98c9-80f8cad06482}, !- Space Name
  Outdoors,                               !- Outside Boundary Condition
  ,                                       !- Outside Boundary Condition Object
  SunExposed,                             !- Sun Exposure
  WindExposed,                            !- Wind Exposure
  ,                                       !- View Factor to Ground
  ,                                       !- Number of Vertices
  3.73302236800156, 0, 2.4384,            !- X,Y,Z Vertex 1 {m}
  3.73302236800156, 0, 0,                 !- X,Y,Z Vertex 2 {m}
  0, 0, 0,                                !- X,Y,Z Vertex 3 {m}
  0, 0, 2.4384;                           !- X,Y,Z Vertex 4 {m}

OS:Surface,
  {9a2daf24-20c8-4401-9b1d-27880d2fc6f7}, !- Handle
  Surface 9,                              !- Name
  Wall,                                   !- Surface Type
  ,                                       !- Construction Name
  {4841297a-54c3-4b5f-98c9-80f8cad06482}, !- Space Name
  Surface,                                !- Outside Boundary Condition
  {6fbd3464-a4d5-4a5d-8013-4a749aa5ecdf}, !- Outside Boundary Condition Object
  NoSun,                                  !- Sun Exposure
  NoWind,                                 !- Wind Exposure
  ,                                       !- View Factor to Ground
  ,                                       !- Number of Vertices
  3.73302236800156, -7.46604473600313, 2.4384, !- X,Y,Z Vertex 1 {m}
  3.73302236800156, -7.46604473600313, 0, !- X,Y,Z Vertex 2 {m}
  3.73302236800156, 0, 0,                 !- X,Y,Z Vertex 3 {m}
  3.73302236800156, 0, 2.4384;            !- X,Y,Z Vertex 4 {m}

OS:Surface,
  {638612ba-793f-4ac2-8ec7-f4c25af2a114}, !- Handle
  Surface 10,                             !- Name
  Wall,                                   !- Surface Type
  ,                                       !- Construction Name
  {4841297a-54c3-4b5f-98c9-80f8cad06482}, !- Space Name
  Outdoors,                               !- Outside Boundary Condition
  ,                                       !- Outside Boundary Condition Object
  SunExposed,                             !- Sun Exposure
  WindExposed,                            !- Wind Exposure
  ,                                       !- View Factor to Ground
  ,                                       !- Number of Vertices
  0, -7.46604473600313, 2.4384,           !- X,Y,Z Vertex 1 {m}
  0, -7.46604473600313, 0,                !- X,Y,Z Vertex 2 {m}
  3.73302236800156, -7.46604473600313, 0, !- X,Y,Z Vertex 3 {m}
  3.73302236800156, -7.46604473600313, 2.4384; !- X,Y,Z Vertex 4 {m}

OS:Surface,
  {b426975b-57f6-4955-8cd8-6f97b4392b4f}, !- Handle
  Surface 11,                             !- Name
  RoofCeiling,                            !- Surface Type
  ,                                       !- Construction Name
  {4841297a-54c3-4b5f-98c9-80f8cad06482}, !- Space Name
  Surface,                                !- Outside Boundary Condition
  {f735fbf8-1b0c-4c69-972b-f40272a74511}, !- Outside Boundary Condition Object
  NoSun,                                  !- Sun Exposure
  NoWind,                                 !- Wind Exposure
  ,                                       !- View Factor to Ground
  ,                                       !- Number of Vertices
  3.73302236800156, -7.46604473600313, 2.4384, !- X,Y,Z Vertex 1 {m}
  3.73302236800156, 0, 2.4384,            !- X,Y,Z Vertex 2 {m}
  0, 0, 2.4384,                           !- X,Y,Z Vertex 3 {m}
  0, -7.46604473600313, 2.4384;           !- X,Y,Z Vertex 4 {m}

OS:Surface,
  {0747a2f5-1a06-44bd-b84c-267574337dd2}, !- Handle
  Surface 12,                             !- Name
  Floor,                                  !- Surface Type
  ,                                       !- Construction Name
  {4841297a-54c3-4b5f-98c9-80f8cad06482}, !- Space Name
  Surface,                                !- Outside Boundary Condition
  {aa6fa876-f3c5-4126-90e9-19ce8a17b5f6}, !- Outside Boundary Condition Object
  NoSun,                                  !- Sun Exposure
  NoWind,                                 !- Wind Exposure
  ,                                       !- View Factor to Ground
  ,                                       !- Number of Vertices
  0, -7.46604473600313, 0,                !- X,Y,Z Vertex 1 {m}
  0, 0, 0,                                !- X,Y,Z Vertex 2 {m}
  3.73302236800156, 0, 0,                 !- X,Y,Z Vertex 3 {m}
  3.73302236800156, -7.46604473600313, 0; !- X,Y,Z Vertex 4 {m}

OS:ThermalZone,
  {d58831b9-fc94-4214-85d9-21a1912f4105}, !- Handle
  living zone|unit 2,                     !- Name
  ,                                       !- Multiplier
  ,                                       !- Ceiling Height {m}
  ,                                       !- Volume {m3}
  ,                                       !- Floor Area {m2}
  ,                                       !- Zone Inside Convection Algorithm
  ,                                       !- Zone Outside Convection Algorithm
  ,                                       !- Zone Conditioning Equipment List Name
  {9ed2806b-f062-471a-b99d-03c44a29f812}, !- Zone Air Inlet Port List
  {9689d749-a738-439c-867e-ab1d43a330c8}, !- Zone Air Exhaust Port List
  {fd587f5f-1b93-42c1-be55-c57e48b98f00}, !- Zone Air Node Name
  ,                                       !- Zone Return Air Node Name
  ,                                       !- Primary Daylighting Control Name
  ,                                       !- Fraction of Zone Controlled by Primary Daylighting Control
  ,                                       !- Secondary Daylighting Control Name
  ,                                       !- Fraction of Zone Controlled by Secondary Daylighting Control
  ,                                       !- Illuminance Map Name
  ,                                       !- Group Rendering Name
  ,                                       !- Thermostat Name
  No;                                     !- Use Ideal Air Loads

OS:Node,
  {6ffae701-f3c0-4de2-ba1f-a9fe2cb7b051}, !- Handle
  Node 2,                                 !- Name
  {fd587f5f-1b93-42c1-be55-c57e48b98f00}, !- Inlet Port
  ;                                       !- Outlet Port

OS:Connection,
  {fd587f5f-1b93-42c1-be55-c57e48b98f00}, !- Handle
  {a9bcc143-5eea-467a-9f05-be99687daa28}, !- Name
  {d58831b9-fc94-4214-85d9-21a1912f4105}, !- Source Object
  11,                                     !- Outlet Port
  {6ffae701-f3c0-4de2-ba1f-a9fe2cb7b051}, !- Target Object
  2;                                      !- Inlet Port

OS:PortList,
  {9ed2806b-f062-471a-b99d-03c44a29f812}, !- Handle
  {5a64a7cc-9a52-4af1-8d00-33c54bf20a55}, !- Name
  {d58831b9-fc94-4214-85d9-21a1912f4105}; !- HVAC Component

OS:PortList,
  {9689d749-a738-439c-867e-ab1d43a330c8}, !- Handle
  {64d1434c-26f9-4657-951b-e18741ccbb04}, !- Name
  {d58831b9-fc94-4214-85d9-21a1912f4105}; !- HVAC Component

OS:Sizing:Zone,
  {7a410cf0-912e-4754-8ab8-197ff633e1e2}, !- Handle
  {d58831b9-fc94-4214-85d9-21a1912f4105}, !- Zone or ZoneList Name
  SupplyAirTemperature,                   !- Zone Cooling Design Supply Air Temperature Input Method
  14,                                     !- Zone Cooling Design Supply Air Temperature {C}
  11.11,                                  !- Zone Cooling Design Supply Air Temperature Difference {deltaC}
  SupplyAirTemperature,                   !- Zone Heating Design Supply Air Temperature Input Method
  40,                                     !- Zone Heating Design Supply Air Temperature {C}
  11.11,                                  !- Zone Heating Design Supply Air Temperature Difference {deltaC}
  0.0085,                                 !- Zone Cooling Design Supply Air Humidity Ratio {kg-H2O/kg-air}
  0.008,                                  !- Zone Heating Design Supply Air Humidity Ratio {kg-H2O/kg-air}
  ,                                       !- Zone Heating Sizing Factor
  ,                                       !- Zone Cooling Sizing Factor
  DesignDay,                              !- Cooling Design Air Flow Method
  ,                                       !- Cooling Design Air Flow Rate {m3/s}
  ,                                       !- Cooling Minimum Air Flow per Zone Floor Area {m3/s-m2}
  ,                                       !- Cooling Minimum Air Flow {m3/s}
  ,                                       !- Cooling Minimum Air Flow Fraction
  DesignDay,                              !- Heating Design Air Flow Method
  ,                                       !- Heating Design Air Flow Rate {m3/s}
  ,                                       !- Heating Maximum Air Flow per Zone Floor Area {m3/s-m2}
  ,                                       !- Heating Maximum Air Flow {m3/s}
  ,                                       !- Heating Maximum Air Flow Fraction
  ,                                       !- Design Zone Air Distribution Effectiveness in Cooling Mode
  ,                                       !- Design Zone Air Distribution Effectiveness in Heating Mode
  No,                                     !- Account for Dedicated Outdoor Air System
  NeutralSupplyAir,                       !- Dedicated Outdoor Air System Control Strategy
  autosize,                               !- Dedicated Outdoor Air Low Setpoint Temperature for Design {C}
  autosize;                               !- Dedicated Outdoor Air High Setpoint Temperature for Design {C}

OS:ZoneHVAC:EquipmentList,
  {80f887b4-2aee-4927-a0a8-c51acbb23d7c}, !- Handle
  Zone HVAC Equipment List 2,             !- Name
  {d58831b9-fc94-4214-85d9-21a1912f4105}; !- Thermal Zone

OS:Space,
  {7dcaf1eb-349e-48f1-9714-a74d31769f1c}, !- Handle
  living space|unit 2|story 1,            !- Name
  {1e1598a4-f818-4490-86e6-e1a4f476ca57}, !- Space Type Name
  ,                                       !- Default Construction Set Name
  ,                                       !- Default Schedule Set Name
  -0,                                     !- Direction of Relative North {deg}
  0,                                      !- X Origin {m}
  0,                                      !- Y Origin {m}
  0,                                      !- Z Origin {m}
  ,                                       !- Building Story Name
  {d58831b9-fc94-4214-85d9-21a1912f4105}, !- Thermal Zone Name
  ,                                       !- Part of Total Floor Area
  ,                                       !- Design Specification Outdoor Air Object Name
  {5f2b4e9f-8a60-4d5b-8add-dde186129b08}; !- Building Unit Name

OS:Surface,
  {46b999c6-443f-4445-8742-a755a4c10f3b}, !- Handle
  Surface 18,                             !- Name
  Wall,                                   !- Surface Type
  ,                                       !- Construction Name
  {7dcaf1eb-349e-48f1-9714-a74d31769f1c}, !- Space Name
  Surface,                                !- Outside Boundary Condition
  {0230ba05-b30c-4f8f-b121-830163636d34}, !- Outside Boundary Condition Object
  NoSun,                                  !- Sun Exposure
  NoWind,                                 !- Wind Exposure
  ,                                       !- View Factor to Ground