!- NOTE: Auto-generated from /test/osw_files/SFA_10units_2story_SL_UA_3Beds_2Baths_Denver.osw

OS:Version,
  {23b9dfac-f2db-412a-8eda-1d9a3181adde}, !- Handle
  2.6.0;                                  !- Version Identifier

OS:Building,
  {a3ed4101-f77c-45d2-8e17-ff42dfdab145}, !- Handle
  Building 1,                             !- Name
  ,                                       !- Building Sector Type
  0,                                      !- North Axis {deg}
  ,                                       !- Nominal Floor to Floor Height {m}
  ,                                       !- Space Type Name
  ,                                       !- Default Construction Set Name
  ,                                       !- Default Schedule Set Name
  2,                                      !- Standards Number of Stories
  2,                                      !- Standards Number of Above Ground Stories
  singlefamilyattached,                   !- Standards Building Type
  10;                                     !- Standards Number of Living Units

OS:Facility,
  {04f35213-0c2e-454a-9fe8-3981c5185b82}; !- Handle

OS:Site,
  {70b9b0f5-f798-4c70-b6dc-5e39be5a3e32}, !- Handle
  Denver Intl Ap_CO_USA,                  !- Name
  39.83,                                  !- Latitude {deg}
  -104.65,                                !- Longitude {deg}
  -7,                                     !- Time Zone {hr}
  1650,                                   !- Elevation {m}
  ;                                       !- Terrain

OS:SimulationControl,
  {7a493aad-f998-4424-aa52-7c5f2112a024}, !- Handle
  ,                                       !- Do Zone Sizing Calculation
  ,                                       !- Do System Sizing Calculation
  ,                                       !- Do Plant Sizing Calculation
  No;                                     !- Run Simulation for Sizing Periods

OS:Sizing:Parameters,
  {8b63ddb1-49f5-4ca8-99e4-7b3400b8df8b}, !- Handle
  1.25,                                   !- Heating Sizing Factor
  1.15;                                   !- Cooling Sizing Factor

OS:Timestep,
  {4bd585cd-e80a-46cd-a22b-364e8a2ab755}, !- Handle
  6;                                      !- Number of Timesteps per Hour

OS:ShadowCalculation,
  {09135a8a-c39c-460e-a2b0-9c0332f2e605}, !- Handle
  20,                                     !- Calculation Frequency
  200;                                    !- Maximum Figures in Shadow Overlap Calculations

OS:HeatBalanceAlgorithm,
  {e8b8bbc2-2406-4a9f-93b0-3722ec98467c}, !- Handle
  ConductionTransferFunction,             !- Algorithm
  200;                                    !- Surface Temperature Upper Limit {C}

OS:RunPeriod,
  {2eac8a28-bbab-435d-b7b3-8b29b47899c1}, !- Handle
  Run Period 1,                           !- Name
  1,                                      !- Begin Month
  1,                                      !- Begin Day of Month
  12,                                     !- End Month
  31,                                     !- End Day of Month
  ,                                       !- Use Weather File Holidays and Special Days
  ,                                       !- Use Weather File Daylight Saving Period
  ,                                       !- Apply Weekend Holiday Rule
  ,                                       !- Use Weather File Rain Indicators
  ,                                       !- Use Weather File Snow Indicators
  ;                                       !- Number of Times Runperiod to be Repeated

OS:LifeCycleCost:Parameters,
  {e7405486-2ea8-45df-921f-a363827cc786}, !- Handle
  ,                                       !- Analysis Type
  ,                                       !- Discounting Convention
  ,                                       !- Inflation Approach
  ,                                       !- Real Discount Rate
  ,                                       !- Nominal Discount Rate
  ,                                       !- Inflation
  ,                                       !- Base Date Month
  ,                                       !- Base Date Year
  ,                                       !- Service Date Month
  ,                                       !- Service Date Year
  ;                                       !- Length of Study Period in Years

OS:ThermalZone,
  {7956a298-7042-4f46-8ec2-e3ff02a527d2}, !- Handle
  living zone,                            !- Name
  ,                                       !- Multiplier
  ,                                       !- Ceiling Height {m}
  ,                                       !- Volume {m3}
  ,                                       !- Floor Area {m2}
  ,                                       !- Zone Inside Convection Algorithm
  ,                                       !- Zone Outside Convection Algorithm
  ,                                       !- Zone Conditioning Equipment List Name
  {a4881160-cd0d-4f52-86d6-b8044637ffc2}, !- Zone Air Inlet Port List
  {61a6685e-16b8-4c83-ac0e-9a69af5842a4}, !- Zone Air Exhaust Port List
  {1330f428-db42-4534-a897-886bd0e9f378}, !- Zone Air Node Name
  ,                                       !- Zone Return Air Node Name
  ,                                       !- Primary Daylighting Control Name
  ,                                       !- Fraction of Zone Controlled by Primary Daylighting Control
  ,                                       !- Secondary Daylighting Control Name
  ,                                       !- Fraction of Zone Controlled by Secondary Daylighting Control
  ,                                       !- Illuminance Map Name
  ,                                       !- Group Rendering Name
  ,                                       !- Thermostat Name
  No;                                     !- Use Ideal Air Loads

OS:Node,
  {aab0c598-811d-4995-88d2-1a82a1708a65}, !- Handle
  Node 1,                                 !- Name
  {1330f428-db42-4534-a897-886bd0e9f378}, !- Inlet Port
  ;                                       !- Outlet Port

OS:Connection,
  {1330f428-db42-4534-a897-886bd0e9f378}, !- Handle
  {c55af9f8-0c76-4986-be18-f1e85ee99f16}, !- Name
  {7956a298-7042-4f46-8ec2-e3ff02a527d2}, !- Source Object
  11,                                     !- Outlet Port
  {aab0c598-811d-4995-88d2-1a82a1708a65}, !- Target Object
  2;                                      !- Inlet Port

OS:PortList,
  {a4881160-cd0d-4f52-86d6-b8044637ffc2}, !- Handle
  {208f9b32-08a1-45a1-bffc-9d2a5495ea2b}, !- Name
  {7956a298-7042-4f46-8ec2-e3ff02a527d2}; !- HVAC Component

OS:PortList,
  {61a6685e-16b8-4c83-ac0e-9a69af5842a4}, !- Handle
  {3201e453-ef9e-4cac-be17-e7d49f35628b}, !- Name
  {7956a298-7042-4f46-8ec2-e3ff02a527d2}; !- HVAC Component

OS:Sizing:Zone,
  {5773b0b6-7d67-4da7-ac05-595d9934dd22}, !- Handle
  {7956a298-7042-4f46-8ec2-e3ff02a527d2}, !- Zone or ZoneList Name
  SupplyAirTemperature,                   !- Zone Cooling Design Supply Air Temperature Input Method
  14,                                     !- Zone Cooling Design Supply Air Temperature {C}
  11.11,                                  !- Zone Cooling Design Supply Air Temperature Difference {deltaC}
  SupplyAirTemperature,                   !- Zone Heating Design Supply Air Temperature Input Method
  40,                                     !- Zone Heating Design Supply Air Temperature {C}
  11.11,                                  !- Zone Heating Design Supply Air Temperature Difference {deltaC}
  0.0085,                                 !- Zone Cooling Design Supply Air Humidity Ratio {kg-H2O/kg-air}
  0.008,                                  !- Zone Heating Design Supply Air Humidity Ratio {kg-H2O/kg-air}
  ,                                       !- Zone Heating Sizing Factor
  ,                                       !- Zone Cooling Sizing Factor
  DesignDay,                              !- Cooling Design Air Flow Method
  ,                                       !- Cooling Design Air Flow Rate {m3/s}
  ,                                       !- Cooling Minimum Air Flow per Zone Floor Area {m3/s-m2}
  ,                                       !- Cooling Minimum Air Flow {m3/s}
  ,                                       !- Cooling Minimum Air Flow Fraction
  DesignDay,                              !- Heating Design Air Flow Method
  ,                                       !- Heating Design Air Flow Rate {m3/s}
  ,                                       !- Heating Maximum Air Flow per Zone Floor Area {m3/s-m2}
  ,                                       !- Heating Maximum Air Flow {m3/s}
  ,                                       !- Heating Maximum Air Flow Fraction
  ,                                       !- Design Zone Air Distribution Effectiveness in Cooling Mode
  ,                                       !- Design Zone Air Distribution Effectiveness in Heating Mode
  No,                                     !- Account for Dedicated Outdoor Air System
  NeutralSupplyAir,                       !- Dedicated Outdoor Air System Control Strategy
  autosize,                               !- Dedicated Outdoor Air Low Setpoint Temperature for Design {C}
  autosize;                               !- Dedicated Outdoor Air High Setpoint Temperature for Design {C}

OS:ZoneHVAC:EquipmentList,
  {a8da7c89-4412-4cc6-a383-7d17301bdb9c}, !- Handle
  Zone HVAC Equipment List 1,             !- Name
  {7956a298-7042-4f46-8ec2-e3ff02a527d2}; !- Thermal Zone

OS:Space,
  {24fbad56-1db9-48e8-93a2-ad24cac85fed}, !- Handle
  living space,                           !- Name
  {ddf2770f-a52d-4b1c-bc97-63dc82c662b9}, !- Space Type Name
  ,                                       !- Default Construction Set Name
  ,                                       !- Default Schedule Set Name
  ,                                       !- Direction of Relative North {deg}
  ,                                       !- X Origin {m}
  ,                                       !- Y Origin {m}
  ,                                       !- Z Origin {m}
  ,                                       !- Building Story Name
  {7956a298-7042-4f46-8ec2-e3ff02a527d2}, !- Thermal Zone Name
  ,                                       !- Part of Total Floor Area
  ,                                       !- Design Specification Outdoor Air Object Name
  {dd910b0a-ebda-4517-b5db-3606180a7ece}; !- Building Unit Name

OS:Surface,
  {5f4b06e2-f4da-4b15-9f84-7c98e1e80425}, !- Handle
  Surface 1,                              !- Name
  Floor,                                  !- Surface Type
  ,                                       !- Construction Name
  {24fbad56-1db9-48e8-93a2-ad24cac85fed}, !- Space Name
  Foundation,                             !- Outside Boundary Condition
  ,                                       !- Outside Boundary Condition Object
  NoSun,                                  !- Sun Exposure
  NoWind,                                 !- Wind Exposure
  ,                                       !- View Factor to Ground
  ,                                       !- Number of Vertices
  0, -9.144, 0,                           !- X,Y,Z Vertex 1 {m}
  0, 0, 0,                                !- X,Y,Z Vertex 2 {m}
  4.572, 0, 0,                            !- X,Y,Z Vertex 3 {m}
  4.572, -9.144, 0;                       !- X,Y,Z Vertex 4 {m}

OS:Surface,
  {1944a0e7-6a20-48fb-a805-d7477d8853c4}, !- Handle
  Surface 2,                              !- Name
  Wall,                                   !- Surface Type
  ,                                       !- Construction Name
  {24fbad56-1db9-48e8-93a2-ad24cac85fed}, !- Space Name
  Outdoors,                               !- Outside Boundary Condition
  ,                                       !- Outside Boundary Condition Object
  SunExposed,                             !- Sun Exposure
  WindExposed,                            !- Wind Exposure
  ,                                       !- View Factor to Ground
  ,                                       !- Number of Vertices
  0, 0, 2.4384,                           !- X,Y,Z Vertex 1 {m}
  0, 0, 0,                                !- X,Y,Z Vertex 2 {m}
  0, -9.144, 0,                           !- X,Y,Z Vertex 3 {m}
  0, -9.144, 2.4384;                      !- X,Y,Z Vertex 4 {m}

OS:Surface,
  {1cd05863-e5fc-480f-987c-e547938ef321}, !- Handle
  Surface 3,                              !- Name
  Wall,                                   !- Surface Type
  ,                                       !- Construction Name
  {24fbad56-1db9-48e8-93a2-ad24cac85fed}, !- Space Name
  Outdoors,                               !- Outside Boundary Condition
  ,                                       !- Outside Boundary Condition Object
  SunExposed,                             !- Sun Exposure
  WindExposed,                            !- Wind Exposure
  ,                                       !- View Factor to Ground
  ,                                       !- Number of Vertices
  4.572, 0, 2.4384,                       !- X,Y,Z Vertex 1 {m}
  4.572, 0, 0,                            !- X,Y,Z Vertex 2 {m}
  0, 0, 0,                                !- X,Y,Z Vertex 3 {m}
  0, 0, 2.4384;                           !- X,Y,Z Vertex 4 {m}

OS:Surface,
  {1155eab1-9231-435b-afd5-3ec05db2ed2f}, !- Handle
  Surface 4,                              !- Name
  Wall,                                   !- Surface Type
  ,                                       !- Construction Name
  {24fbad56-1db9-48e8-93a2-ad24cac85fed}, !- Space Name
  Surface,                                !- Outside Boundary Condition
  {4ed6245f-d126-4efd-b763-f4db1b783085}, !- Outside Boundary Condition Object
  NoSun,                                  !- Sun Exposure
  NoWind,                                 !- Wind Exposure
  ,                                       !- View Factor to Ground
  ,                                       !- Number of Vertices
  4.572, -9.144, 2.4384,                  !- X,Y,Z Vertex 1 {m}
  4.572, -9.144, 0,                       !- X,Y,Z Vertex 2 {m}
  4.572, 0, 0,                            !- X,Y,Z Vertex 3 {m}
  4.572, 0, 2.4384;                       !- X,Y,Z Vertex 4 {m}

OS:Surface,
  {f035e54f-d1ed-4122-a422-cb7fe91a15f5}, !- Handle
  Surface 5,                              !- Name
  Wall,                                   !- Surface Type
  ,                                       !- Construction Name
  {24fbad56-1db9-48e8-93a2-ad24cac85fed}, !- Space Name
  Outdoors,                               !- Outside Boundary Condition
  ,                                       !- Outside Boundary Condition Object
  SunExposed,                             !- Sun Exposure
  WindExposed,                            !- Wind Exposure
  ,                                       !- View Factor to Ground
  ,                                       !- Number of Vertices
  0, -9.144, 2.4384,                      !- X,Y,Z Vertex 1 {m}
  0, -9.144, 0,                           !- X,Y,Z Vertex 2 {m}
  4.572, -9.144, 0,                       !- X,Y,Z Vertex 3 {m}
  4.572, -9.144, 2.4384;                  !- X,Y,Z Vertex 4 {m}

OS:Surface,
  {4d9bcdf8-c689-4952-ae75-6a4288ad2810}, !- Handle
  Surface 6,                              !- Name
  RoofCeiling,                            !- Surface Type
  ,                                       !- Construction Name
  {24fbad56-1db9-48e8-93a2-ad24cac85fed}, !- Space Name
  Surface,                                !- Outside Boundary Condition
  {9b2d9f8d-7702-403a-af0d-8fc644df0b5f}, !- Outside Boundary Condition Object
  NoSun,                                  !- Sun Exposure
  NoWind,                                 !- Wind Exposure
  ,                                       !- View Factor to Ground
  ,                                       !- Number of Vertices
  4.572, -9.144, 2.4384,                  !- X,Y,Z Vertex 1 {m}
  4.572, 0, 2.4384,                       !- X,Y,Z Vertex 2 {m}
  0, 0, 2.4384,                           !- X,Y,Z Vertex 3 {m}
  0, -9.144, 2.4384;                      !- X,Y,Z Vertex 4 {m}

OS:SpaceType,
  {ddf2770f-a52d-4b1c-bc97-63dc82c662b9}, !- Handle
  Space Type 1,                           !- Name
  ,                                       !- Default Construction Set Name
  ,                                       !- Default Schedule Set Name
  ,                                       !- Group Rendering Name
  ,                                       !- Design Specification Outdoor Air Object Name
  ,                                       !- Standards Building Type
  living;                                 !- Standards Space Type

OS:Space,
  {aa2b64f5-4dc6-44a0-83a8-6313b3e5d007}, !- Handle
  living space|story 2,                   !- Name
  {ddf2770f-a52d-4b1c-bc97-63dc82c662b9}, !- Space Type Name
  ,                                       !- Default Construction Set Name
  ,                                       !- Default Schedule Set Name
  -0,                                     !- Direction of Relative North {deg}
  0,                                      !- X Origin {m}
  0,                                      !- Y Origin {m}
  2.4384,                                 !- Z Origin {m}
  ,                                       !- Building Story Name
  {7956a298-7042-4f46-8ec2-e3ff02a527d2}, !- Thermal Zone Name
  ,                                       !- Part of Total Floor Area
  ,                                       !- Design Specification Outdoor Air Object Name
  {dd910b0a-ebda-4517-b5db-3606180a7ece}; !- Building Unit Name

OS:Surface,
  {d72d1129-33a7-476d-bda1-4bb45ce4a53c}, !- Handle
  Surface 7,                              !- Name
  Wall,                                   !- Surface Type
  ,                                       !- Construction Name
  {aa2b64f5-4dc6-44a0-83a8-6313b3e5d007}, !- Space Name
  Outdoors,                               !- Outside Boundary Condition
  ,                                       !- Outside Boundary Condition Object
  SunExposed,                             !- Sun Exposure
  WindExposed,                            !- Wind Exposure
  ,                                       !- View Factor to Ground
  ,                                       !- Number of Vertices
  4.572, 0, 2.4384,                       !- X,Y,Z Vertex 1 {m}
  4.572, 0, 0,                            !- X,Y,Z Vertex 2 {m}
  0, 0, 0,                                !- X,Y,Z Vertex 3 {m}
  0, 0, 2.4384;                           !- X,Y,Z Vertex 4 {m}

OS:Surface,
  {497e5353-2311-4558-b922-5d52e843f1dd}, !- Handle
  Surface 8,                              !- Name
  Wall,                                   !- Surface Type
  ,                                       !- Construction Name
  {aa2b64f5-4dc6-44a0-83a8-6313b3e5d007}, !- Space Name
  Outdoors,                               !- Outside Boundary Condition
  ,                                       !- Outside Boundary Condition Object
  SunExposed,                             !- Sun Exposure
  WindExposed,                            !- Wind Exposure
  ,                                       !- View Factor to Ground
  ,                                       !- Number of Vertices
  0, -9.144, 2.4384,                      !- X,Y,Z Vertex 1 {m}
  0, -9.144, 0,                           !- X,Y,Z Vertex 2 {m}
  4.572, -9.144, 0,                       !- X,Y,Z Vertex 3 {m}
  4.572, -9.144, 2.4384;                  !- X,Y,Z Vertex 4 {m}

OS:Surface,
  {7e3c76ba-f4e0-4044-80f8-9e779066f95f}, !- Handle
  Surface 9,                              !- Name
  RoofCeiling,                            !- Surface Type
  ,                                       !- Construction Name
  {aa2b64f5-4dc6-44a0-83a8-6313b3e5d007}, !- Space Name
  Surface,                                !- Outside Boundary Condition
  {bab9c1c1-7a87-4968-97ce-5bf1ac56a4d0}, !- Outside Boundary Condition Object
  NoSun,                                  !- Sun Exposure
  NoWind,                                 !- Wind Exposure
  ,                                       !- View Factor to Ground
  ,                                       !- Number of Vertices
  4.572, -9.144, 2.4384,                  !- X,Y,Z Vertex 1 {m}
  4.572, 0, 2.4384,                       !- X,Y,Z Vertex 2 {m}
  0, 0, 2.4384,                           !- X,Y,Z Vertex 3 {m}
  0, -9.144, 2.4384;                      !- X,Y,Z Vertex 4 {m}

OS:Surface,
  {a986f576-8f59-4e8c-beed-48d1d82c598d}, !- Handle
  Surface 10,                             !- Name
  Wall,                                   !- Surface Type
  ,                                       !- Construction Name
  {aa2b64f5-4dc6-44a0-83a8-6313b3e5d007}, !- Space Name
  Surface,                                !- Outside Boundary Condition
  {dbacc0bd-cf6a-4c63-96c5-9b1d5be8150f}, !- Outside Boundary Condition Object
  NoSun,                                  !- Sun Exposure
  NoWind,                                 !- Wind Exposure
  ,                                       !- View Factor to Ground
  ,                                       !- Number of Vertices
  4.572, -9.144, 2.4384,                  !- X,Y,Z Vertex 1 {m}
  4.572, -9.144, 0,                       !- X,Y,Z Vertex 2 {m}
  4.572, 0, 0,                            !- X,Y,Z Vertex 3 {m}
  4.572, 0, 2.4384;                       !- X,Y,Z Vertex 4 {m}

OS:Surface,
  {9b2d9f8d-7702-403a-af0d-8fc644df0b5f}, !- Handle
  Surface 11,                             !- Name
  Floor,                                  !- Surface Type
  ,                                       !- Construction Name
  {aa2b64f5-4dc6-44a0-83a8-6313b3e5d007}, !- Space Name
  Surface,                                !- Outside Boundary Condition
  {4d9bcdf8-c689-4952-ae75-6a4288ad2810}, !- Outside Boundary Condition Object
  NoSun,                                  !- Sun Exposure
  NoWind,                                 !- Wind Exposure
  ,                                       !- View Factor to Ground
  ,                                       !- Number of Vertices
  0, -9.144, 0,                           !- X,Y,Z Vertex 1 {m}
  0, 0, 0,                                !- X,Y,Z Vertex 2 {m}
  4.572, 0, 0,                            !- X,Y,Z Vertex 3 {m}
  4.572, -9.144, 0;                       !- X,Y,Z Vertex 4 {m}

OS:Surface,
  {e633f19f-0390-4fd5-8927-5e0951d11297}, !- Handle
  Surface 12,                             !- Name
  Wall,                                   !- Surface Type
  ,                                       !- Construction Name
  {aa2b64f5-4dc6-44a0-83a8-6313b3e5d007}, !- Space Name
  Outdoors,                               !- Outside Boundary Condition
  ,                                       !- Outside Boundary Condition Object
  SunExposed,                             !- Sun Exposure
  WindExposed,                            !- Wind Exposure
  ,                                       !- View Factor to Ground
  ,                                       !- Number of Vertices
  0, 0, 2.4384,                           !- X,Y,Z Vertex 1 {m}
  0, 0, 0,                                !- X,Y,Z Vertex 2 {m}
  0, -9.144, 0,                           !- X,Y,Z Vertex 3 {m}
  0, -9.144, 2.4384;                      !- X,Y,Z Vertex 4 {m}

OS:ThermalZone,
  {13b96a48-bc41-4174-96b7-01390cb9adc6}, !- Handle
  living zone|unit 2,                     !- Name
  ,                                       !- Multiplier
  ,                                       !- Ceiling Height {m}
  ,                                       !- Volume {m3}
  ,                                       !- Floor Area {m2}
  ,                                       !- Zone Inside Convection Algorithm
  ,                                       !- Zone Outside Convection Algorithm
  ,                                       !- Zone Conditioning Equipment List Name
  {9cb34278-a358-456a-b13c-fdf630bd5b37}, !- Zone Air Inlet Port List
  {0cd30250-60fb-487e-b484-f00894fe76a1}, !- Zone Air Exhaust Port List
  {676b5b4e-9046-478b-b23a-227d438410de}, !- Zone Air Node Name
  ,                                       !- Zone Return Air Node Name
  ,                                       !- Primary Daylighting Control Name
  ,                                       !- Fraction of Zone Controlled by Primary Daylighting Control
  ,                                       !- Secondary Daylighting Control Name
  ,                                       !- Fraction of Zone Controlled by Secondary Daylighting Control
  ,                                       !- Illuminance Map Name
  ,                                       !- Group Rendering Name
  ,                                       !- Thermostat Name
  No;                                     !- Use Ideal Air Loads

OS:Node,
  {ed8a4082-7930-431e-a8b2-f11ed624b394}, !- Handle
  Node 2,                                 !- Name
  {676b5b4e-9046-478b-b23a-227d438410de}, !- Inlet Port
  ;                                       !- Outlet Port

OS:Connection,
  {676b5b4e-9046-478b-b23a-227d438410de}, !- Handle
  {2e317154-e4b2-4612-a724-1e1e9b67e17c}, !- Name
  {13b96a48-bc41-4174-96b7-01390cb9adc6}, !- Source Object
  11,                                     !- Outlet Port
  {ed8a4082-7930-431e-a8b2-f11ed624b394}, !- Target Object
  2;                                      !- Inlet Port

OS:PortList,
  {9cb34278-a358-456a-b13c-fdf630bd5b37}, !- Handle
  {aced37f9-fb6e-473e-a392-cb4ba677f3b8}, !- Name
  {13b96a48-bc41-4174-96b7-01390cb9adc6}; !- HVAC Component

OS:PortList,
  {0cd30250-60fb-487e-b484-f00894fe76a1}, !- Handle
  {16803599-be0c-40ab-b79e-7d105d708613}, !- Name
  {13b96a48-bc41-4174-96b7-01390cb9adc6}; !- HVAC Component

OS:Sizing:Zone,
  {c221a4ab-215f-4d99-af65-b236675443c1}, !- Handle
  {13b96a48-bc41-4174-96b7-01390cb9adc6}, !- Zone or ZoneList Name
  SupplyAirTemperature,                   !- Zone Cooling Design Supply Air Temperature Input Method
  14,                                     !- Zone Cooling Design Supply Air Temperature {C}
  11.11,                                  !- Zone Cooling Design Supply Air Temperature Difference {deltaC}
  SupplyAirTemperature,                   !- Zone Heating Design Supply Air Temperature Input Method
  40,                                     !- Zone Heating Design Supply Air Temperature {C}
  11.11,                                  !- Zone Heating Design Supply Air Temperature Difference {deltaC}
  0.0085,                                 !- Zone Cooling Design Supply Air Humidity Ratio {kg-H2O/kg-air}
  0.008,                                  !- Zone Heating Design Supply Air Humidity Ratio {kg-H2O/kg-air}
  ,                                       !- Zone Heating Sizing Factor
  ,                                       !- Zone Cooling Sizing Factor
  DesignDay,                              !- Cooling Design Air Flow Method
  ,                                       !- Cooling Design Air Flow Rate {m3/s}
  ,                                       !- Cooling Minimum Air Flow per Zone Floor Area {m3/s-m2}
  ,                                       !- Cooling Minimum Air Flow {m3/s}
  ,                                       !- Cooling Minimum Air Flow Fraction
  DesignDay,                              !- Heating Design Air Flow Method
  ,                                       !- Heating Design Air Flow Rate {m3/s}
  ,                                       !- Heating Maximum Air Flow per Zone Floor Area {m3/s-m2}
  ,                                       !- Heating Maximum Air Flow {m3/s}
  ,                                       !- Heating Maximum Air Flow Fraction
  ,                                       !- Design Zone Air Distribution Effectiveness in Cooling Mode
  ,                                       !- Design Zone Air Distribution Effectiveness in Heating Mode
  No,                                     !- Account for Dedicated Outdoor Air System
  NeutralSupplyAir,                       !- Dedicated Outdoor Air System Control Strategy
  autosize,                               !- Dedicated Outdoor Air Low Setpoint Temperature for Design {C}
  autosize;                               !- Dedicated Outdoor Air High Setpoint Temperature for Design {C}

OS:ZoneHVAC:EquipmentList,
  {740822b4-ca76-41bd-8eca-709d37c8b36e}, !- Handle
  Zone HVAC Equipment List 2,             !- Name
  {13b96a48-bc41-4174-96b7-01390cb9adc6}; !- Thermal Zone

OS:Space,
  {73e1edfd-ae29-448e-abad-9152d27bcf47}, !- Handle
  living space|unit 2|story 1,            !- Name
  {ddf2770f-a52d-4b1c-bc97-63dc82c662b9}, !- Space Type Name
  ,                                       !- Default Construction Set Name
  ,                                       !- Default Schedule Set Name
  -0,                                     !- Direction of Relative North {deg}
  0,                                      !- X Origin {m}
  0,                                      !- Y Origin {m}
  0,                                      !- Z Origin {m}
  ,                                       !- Building Story Name
  {13b96a48-bc41-4174-96b7-01390cb9adc6}, !- Thermal Zone Name
  ,                                       !- Part of Total Floor Area
  ,                                       !- Design Specification Outdoor Air Object Name
  {890b697a-1067-4491-8e13-790fc58c2af6}; !- Building Unit Name

OS:Surface,
  {270044b9-c590-4cc7-b186-44acc02c10b7}, !- Handle
  Surface 18,                             !- Name
  Wall,                                   !- Surface Type
  ,                                       !- Construction Name
  {73e1edfd-ae29-448e-abad-9152d27bcf47}, !- Space Name
  Outdoors,                               !- Outside Boundary Condition
  ,                                       !- Outside Boundary Condition Object
  SunExposed,                             !- Sun Exposure
  WindExposed,                            !- Wind Exposure
  ,                                       !- View Factor to Ground
  ,                                       !- Number of Vertices