!- NOTE: Auto-generated from /test/osw_files/MF_8units_1story_SL_3Beds_2Baths_Denver_CentralAC_NoSetpoints.osw

OS:Version,
  {22286255-91d8-4b7e-9213-1870469b6d4c}, !- Handle
  2.7.0;                                  !- Version Identifier

OS:Building,
  {96abe88f-8068-471a-b391-f6619378b792}, !- Handle
  Building 1,                             !- Name
  ,                                       !- Building Sector Type
  0,                                      !- North Axis {deg}
  ,                                       !- Nominal Floor to Floor Height {m}
  ,                                       !- Space Type Name
  ,                                       !- Default Construction Set Name
  ,                                       !- Default Schedule Set Name
  1,                                      !- Standards Number of Stories
  1,                                      !- Standards Number of Above Ground Stories
  ,                                       !- Standards Template
  multifamily,                            !- Standards Building Type
  8;                                      !- Standards Number of Living Units

OS:Facility,
  {3d92c066-f095-4326-a760-8eb1a108e8ef}; !- Handle

OS:Site,
  {8a57d9d0-6161-41f1-962b-75fd5864bdf9}, !- Handle
  Denver Intl Ap_CO_USA,                  !- Name
  39.83,                                  !- Latitude {deg}
  -104.65,                                !- Longitude {deg}
  -7,                                     !- Time Zone {hr}
  1650,                                   !- Elevation {m}
  ;                                       !- Terrain

OS:SimulationControl,
  {2a31360c-023f-40d3-b24b-3d96e41f688e}, !- Handle
  ,                                       !- Do Zone Sizing Calculation
  ,                                       !- Do System Sizing Calculation
  ,                                       !- Do Plant Sizing Calculation
  No;                                     !- Run Simulation for Sizing Periods

OS:Sizing:Parameters,
  {48f7049d-b542-4d17-b173-e82dd9be0713}, !- Handle
  1.25,                                   !- Heating Sizing Factor
  1.15;                                   !- Cooling Sizing Factor

OS:Timestep,
  {3fa86f06-b70f-4dc3-aa78-68317f48a466}, !- Handle
  6;                                      !- Number of Timesteps per Hour

OS:ShadowCalculation,
  {a11d644a-5bd7-4959-b9c9-5b5e98826c09}, !- Handle
  20,                                     !- Calculation Frequency
  200;                                    !- Maximum Figures in Shadow Overlap Calculations

OS:HeatBalanceAlgorithm,
  {b16a9041-3927-4351-9d4e-4ee7369f41dd}, !- Handle
  ConductionTransferFunction,             !- Algorithm
  200;                                    !- Surface Temperature Upper Limit {C}

OS:RunPeriod,
  {fce7ce29-a1a0-45b1-ab40-a010d0cabc6b}, !- Handle
  Run Period 1,                           !- Name
  1,                                      !- Begin Month
  1,                                      !- Begin Day of Month
  12,                                     !- End Month
  31,                                     !- End Day of Month
  ,                                       !- Use Weather File Holidays and Special Days
  ,                                       !- Use Weather File Daylight Saving Period
  ,                                       !- Apply Weekend Holiday Rule
  ,                                       !- Use Weather File Rain Indicators
  ,                                       !- Use Weather File Snow Indicators
  ;                                       !- Number of Times Runperiod to be Repeated

OS:LifeCycleCost:Parameters,
  {31481c87-a7dc-4566-a2c8-4969b614c5ee}, !- Handle
  ,                                       !- Analysis Type
  ,                                       !- Discounting Convention
  ,                                       !- Inflation Approach
  ,                                       !- Real Discount Rate
  ,                                       !- Nominal Discount Rate
  ,                                       !- Inflation
  ,                                       !- Base Date Month
  ,                                       !- Base Date Year
  ,                                       !- Service Date Month
  ,                                       !- Service Date Year
  ;                                       !- Length of Study Period in Years

OS:SurfaceConvectionAlgorithm:Outside,
  {e1a4aa2a-cdfd-4782-a22a-02702965eff0}, !- Handle
  DOE-2;                                  !- Algorithm

OS:SurfaceConvectionAlgorithm:Inside,
  {8d72f74d-7e74-4167-80fc-8b267f3b747b}, !- Handle
  TARP;                                   !- Algorithm

OS:ZoneCapacitanceMultiplier:ResearchSpecial,
  {6c936892-f1d7-47cb-b9f3-916fb99229b5}, !- Handle
  ,                                       !- Temperature Capacity Multiplier
  15,                                     !- Humidity Capacity Multiplier
  ;                                       !- Carbon Dioxide Capacity Multiplier

OS:ThermalZone,
  {0f13d30b-c6b1-4ace-ae68-9d86f74e19b1}, !- Handle
  living zone,                            !- Name
  ,                                       !- Multiplier
  ,                                       !- Ceiling Height {m}
  ,                                       !- Volume {m3}
  ,                                       !- Floor Area {m2}
  ,                                       !- Zone Inside Convection Algorithm
  ,                                       !- Zone Outside Convection Algorithm
  ,                                       !- Zone Conditioning Equipment List Name
  {cd29c465-3319-46d2-9e25-3abfa45029f7}, !- Zone Air Inlet Port List
  {079d2e5a-f18b-4c83-a22c-f378ad58e922}, !- Zone Air Exhaust Port List
  {db3ab0c4-c197-4055-88b8-3f77577e50b6}, !- Zone Air Node Name
  {5c9e40b1-9a0f-40e6-a0a2-d1c015d1e31e}, !- Zone Return Air Port List
  ,                                       !- Primary Daylighting Control Name
  ,                                       !- Fraction of Zone Controlled by Primary Daylighting Control
  ,                                       !- Secondary Daylighting Control Name
  ,                                       !- Fraction of Zone Controlled by Secondary Daylighting Control
  ,                                       !- Illuminance Map Name
  ,                                       !- Group Rendering Name
  ,                                       !- Thermostat Name
  No;                                     !- Use Ideal Air Loads

OS:Node,
  {bd1d4b6f-d644-4ab1-97ef-a96e6e3c0716}, !- Handle
  Node 1,                                 !- Name
  {db3ab0c4-c197-4055-88b8-3f77577e50b6}, !- Inlet Port
  ;                                       !- Outlet Port

OS:Connection,
  {db3ab0c4-c197-4055-88b8-3f77577e50b6}, !- Handle
  {e8c2e649-cce7-42ec-819c-c713d642bb2e}, !- Name
  {0f13d30b-c6b1-4ace-ae68-9d86f74e19b1}, !- Source Object
  11,                                     !- Outlet Port
  {bd1d4b6f-d644-4ab1-97ef-a96e6e3c0716}, !- Target Object
  2;                                      !- Inlet Port

OS:PortList,
  {cd29c465-3319-46d2-9e25-3abfa45029f7}, !- Handle
  {d23a19ca-e48f-4426-a7ce-5daba0ee098c}, !- Name
  {0f13d30b-c6b1-4ace-ae68-9d86f74e19b1}, !- HVAC Component
  {039d941f-0d4f-4f0e-931c-97fc6a038d47}; !- Port 1

OS:PortList,
  {079d2e5a-f18b-4c83-a22c-f378ad58e922}, !- Handle
  {81f423f3-3215-4b8f-9f78-af3781350881}, !- Name
  {0f13d30b-c6b1-4ace-ae68-9d86f74e19b1}; !- HVAC Component

OS:PortList,
  {5c9e40b1-9a0f-40e6-a0a2-d1c015d1e31e}, !- Handle
  {9efb0b4a-bde8-4eb1-8cdb-f8e0c767760d}, !- Name
  {0f13d30b-c6b1-4ace-ae68-9d86f74e19b1}, !- HVAC Component
  {cb217fe2-dd45-4971-8ea8-7e60def8f1ea}; !- Port 1

OS:Sizing:Zone,
  {82191615-b8ce-42e6-82ce-ffdcd684df60}, !- Handle
  {0f13d30b-c6b1-4ace-ae68-9d86f74e19b1}, !- Zone or ZoneList Name
  SupplyAirTemperature,                   !- Zone Cooling Design Supply Air Temperature Input Method
  14,                                     !- Zone Cooling Design Supply Air Temperature {C}
  11.11,                                  !- Zone Cooling Design Supply Air Temperature Difference {deltaC}
  SupplyAirTemperature,                   !- Zone Heating Design Supply Air Temperature Input Method
  40,                                     !- Zone Heating Design Supply Air Temperature {C}
  11.11,                                  !- Zone Heating Design Supply Air Temperature Difference {deltaC}
  0.0085,                                 !- Zone Cooling Design Supply Air Humidity Ratio {kg-H2O/kg-air}
  0.008,                                  !- Zone Heating Design Supply Air Humidity Ratio {kg-H2O/kg-air}
  ,                                       !- Zone Heating Sizing Factor
  ,                                       !- Zone Cooling Sizing Factor
  DesignDay,                              !- Cooling Design Air Flow Method
  ,                                       !- Cooling Design Air Flow Rate {m3/s}
  ,                                       !- Cooling Minimum Air Flow per Zone Floor Area {m3/s-m2}
  ,                                       !- Cooling Minimum Air Flow {m3/s}
  ,                                       !- Cooling Minimum Air Flow Fraction
  DesignDay,                              !- Heating Design Air Flow Method
  ,                                       !- Heating Design Air Flow Rate {m3/s}
  ,                                       !- Heating Maximum Air Flow per Zone Floor Area {m3/s-m2}
  ,                                       !- Heating Maximum Air Flow {m3/s}
  ,                                       !- Heating Maximum Air Flow Fraction
  ,                                       !- Design Zone Air Distribution Effectiveness in Cooling Mode
  ,                                       !- Design Zone Air Distribution Effectiveness in Heating Mode
  No,                                     !- Account for Dedicated Outdoor Air System
  NeutralSupplyAir,                       !- Dedicated Outdoor Air System Control Strategy
  autosize,                               !- Dedicated Outdoor Air Low Setpoint Temperature for Design {C}
  autosize;                               !- Dedicated Outdoor Air High Setpoint Temperature for Design {C}

OS:ZoneHVAC:EquipmentList,
  {c83c916d-f80f-44a2-ae3a-2de32887b626}, !- Handle
  Zone HVAC Equipment List 1,             !- Name
  {0f13d30b-c6b1-4ace-ae68-9d86f74e19b1}, !- Thermal Zone
  ,                                       !- Load Distribution Scheme
  {0f0b7ac2-f89e-44c5-8578-42624d211784}, !- Zone Equipment 1
  1,                                      !- Zone Equipment Cooling Sequence 1
  1;                                      !- Zone Equipment Heating or No-Load Sequence 1

OS:Space,
  {7eb41712-99d2-48d0-b62e-3d324e57f602}, !- Handle
  living space,                           !- Name
  {5bee3e9a-e067-49a0-8e41-7267fe2e909b}, !- Space Type Name
  ,                                       !- Default Construction Set Name
  ,                                       !- Default Schedule Set Name
  ,                                       !- Direction of Relative North {deg}
  ,                                       !- X Origin {m}
  ,                                       !- Y Origin {m}
  ,                                       !- Z Origin {m}
  ,                                       !- Building Story Name
  {0f13d30b-c6b1-4ace-ae68-9d86f74e19b1}, !- Thermal Zone Name
  ,                                       !- Part of Total Floor Area
  ,                                       !- Design Specification Outdoor Air Object Name
  {efbb06be-cff1-4b06-bad9-7351d22715dc}; !- Building Unit Name

OS:Surface,
  {6265638c-37c0-4ee2-b991-e9d38958d496}, !- Handle
  Surface 1,                              !- Name
  Floor,                                  !- Surface Type
  ,                                       !- Construction Name
  {7eb41712-99d2-48d0-b62e-3d324e57f602}, !- Space Name
  Foundation,                             !- Outside Boundary Condition
  ,                                       !- Outside Boundary Condition Object
  NoSun,                                  !- Sun Exposure
  NoWind,                                 !- Wind Exposure
  ,                                       !- View Factor to Ground
  ,                                       !- Number of Vertices
  0, -12.9315688143396, 0,                !- X,Y,Z Vertex 1 {m}
  0, 0, 0,                                !- X,Y,Z Vertex 2 {m}
  6.46578440716979, 0, 0,                 !- X,Y,Z Vertex 3 {m}
  6.46578440716979, -12.9315688143396, 0; !- X,Y,Z Vertex 4 {m}

OS:Surface,
  {562b9d28-f193-4eca-916e-d4a4c4f9715e}, !- Handle
  Surface 2,                              !- Name
  Wall,                                   !- Surface Type
  ,                                       !- Construction Name
  {7eb41712-99d2-48d0-b62e-3d324e57f602}, !- Space Name
  Outdoors,                               !- Outside Boundary Condition
  ,                                       !- Outside Boundary Condition Object
  SunExposed,                             !- Sun Exposure
  WindExposed,                            !- Wind Exposure
  ,                                       !- View Factor to Ground
  ,                                       !- Number of Vertices
  0, 0, 2.4384,                           !- X,Y,Z Vertex 1 {m}
  0, 0, 0,                                !- X,Y,Z Vertex 2 {m}
  0, -12.9315688143396, 0,                !- X,Y,Z Vertex 3 {m}
  0, -12.9315688143396, 2.4384;           !- X,Y,Z Vertex 4 {m}

OS:Surface,
  {86993ed2-4f43-49a1-9056-a1a733ecc9a6}, !- Handle
  Surface 3,                              !- Name
  Wall,                                   !- Surface Type
  ,                                       !- Construction Name
  {7eb41712-99d2-48d0-b62e-3d324e57f602}, !- Space Name
  Adiabatic,                              !- Outside Boundary Condition
  ,                                       !- Outside Boundary Condition Object
  NoSun,                                  !- Sun Exposure
  NoWind,                                 !- Wind Exposure
  ,                                       !- View Factor to Ground
  ,                                       !- Number of Vertices
  6.46578440716979, 0, 2.4384,            !- X,Y,Z Vertex 1 {m}
  6.46578440716979, 0, 0,                 !- X,Y,Z Vertex 2 {m}
  0, 0, 0,                                !- X,Y,Z Vertex 3 {m}
  0, 0, 2.4384;                           !- X,Y,Z Vertex 4 {m}

OS:Surface,
  {80756ac2-8ca0-48a9-a93f-363e6b2c789f}, !- Handle
  Surface 4,                              !- Name
  Wall,                                   !- Surface Type
  ,                                       !- Construction Name
  {7eb41712-99d2-48d0-b62e-3d324e57f602}, !- Space Name
  Surface,                                !- Outside Boundary Condition
  {020f9459-eb06-4ba6-aa6f-251e4da15535}, !- Outside Boundary Condition Object
  NoSun,                                  !- Sun Exposure
  NoWind,                                 !- Wind Exposure
  ,                                       !- View Factor to Ground
  ,                                       !- Number of Vertices
  6.46578440716979, -12.9315688143396, 2.4384, !- X,Y,Z Vertex 1 {m}
  6.46578440716979, -12.9315688143396, 0, !- X,Y,Z Vertex 2 {m}
  6.46578440716979, 0, 0,                 !- X,Y,Z Vertex 3 {m}
  6.46578440716979, 0, 2.4384;            !- X,Y,Z Vertex 4 {m}

OS:Surface,
  {ddc70aff-a204-4b19-b0fe-bfd688848c07}, !- Handle
  Surface 5,                              !- Name
  Wall,                                   !- Surface Type
  ,                                       !- Construction Name
  {7eb41712-99d2-48d0-b62e-3d324e57f602}, !- Space Name
  Outdoors,                               !- Outside Boundary Condition
  ,                                       !- Outside Boundary Condition Object
  SunExposed,                             !- Sun Exposure
  WindExposed,                            !- Wind Exposure
  ,                                       !- View Factor to Ground
  ,                                       !- Number of Vertices
  0, -12.9315688143396, 2.4384,           !- X,Y,Z Vertex 1 {m}
  0, -12.9315688143396, 0,                !- X,Y,Z Vertex 2 {m}
  6.46578440716979, -12.9315688143396, 0, !- X,Y,Z Vertex 3 {m}
  6.46578440716979, -12.9315688143396, 2.4384; !- X,Y,Z Vertex 4 {m}

OS:Surface,
  {41305a49-90b3-4aab-8d24-1c6ca9f3b5a1}, !- Handle
  Surface 6,                              !- Name
  RoofCeiling,                            !- Surface Type
  ,                                       !- Construction Name
  {7eb41712-99d2-48d0-b62e-3d324e57f602}, !- Space Name
  Outdoors,                               !- Outside Boundary Condition
  ,                                       !- Outside Boundary Condition Object
  SunExposed,                             !- Sun Exposure
  WindExposed,                            !- Wind Exposure
  ,                                       !- View Factor to Ground
  ,                                       !- Number of Vertices
  6.46578440716979, -12.9315688143396, 2.4384, !- X,Y,Z Vertex 1 {m}
  6.46578440716979, 0, 2.4384,            !- X,Y,Z Vertex 2 {m}
  0, 0, 2.4384,                           !- X,Y,Z Vertex 3 {m}
  0, -12.9315688143396, 2.4384;           !- X,Y,Z Vertex 4 {m}

OS:SpaceType,
  {5bee3e9a-e067-49a0-8e41-7267fe2e909b}, !- Handle
  Space Type 1,                           !- Name
  ,                                       !- Default Construction Set Name
  ,                                       !- Default Schedule Set Name
  ,                                       !- Group Rendering Name
  ,                                       !- Design Specification Outdoor Air Object Name
  ,                                       !- Standards Template
  ,                                       !- Standards Building Type
  living;                                 !- Standards Space Type

OS:ThermalZone,
  {391ac2f4-faec-4b5b-8321-7d6685e023ca}, !- Handle
  living zone|unit 2,                     !- Name
  ,                                       !- Multiplier
  ,                                       !- Ceiling Height {m}
  ,                                       !- Volume {m3}
  ,                                       !- Floor Area {m2}
  ,                                       !- Zone Inside Convection Algorithm
  ,                                       !- Zone Outside Convection Algorithm
  ,                                       !- Zone Conditioning Equipment List Name
  {a0ba1842-ac60-4388-bd2d-873bd3ae1dba}, !- Zone Air Inlet Port List
  {b3b759de-a63f-41b6-a049-9089544c6de5}, !- Zone Air Exhaust Port List
  {870cf5b8-adfe-4c94-84fc-4b92503fbc42}, !- Zone Air Node Name
  {0627660b-d5d1-4488-9c8f-cb1654b45c88}, !- Zone Return Air Port List
  ,                                       !- Primary Daylighting Control Name
  ,                                       !- Fraction of Zone Controlled by Primary Daylighting Control
  ,                                       !- Secondary Daylighting Control Name
  ,                                       !- Fraction of Zone Controlled by Secondary Daylighting Control
  ,                                       !- Illuminance Map Name
  ,                                       !- Group Rendering Name
  ,                                       !- Thermostat Name
  No;                                     !- Use Ideal Air Loads

OS:Node,
  {00f3adac-5fc2-41a4-82ec-9a8f455e92fd}, !- Handle
  Node 2,                                 !- Name
  {870cf5b8-adfe-4c94-84fc-4b92503fbc42}, !- Inlet Port
  ;                                       !- Outlet Port

OS:Connection,
  {870cf5b8-adfe-4c94-84fc-4b92503fbc42}, !- Handle
  {00001b0c-9e19-43bf-a03b-f9ba1643eb1a}, !- Name
  {391ac2f4-faec-4b5b-8321-7d6685e023ca}, !- Source Object
  11,                                     !- Outlet Port
  {00f3adac-5fc2-41a4-82ec-9a8f455e92fd}, !- Target Object
  2;                                      !- Inlet Port

OS:PortList,
  {a0ba1842-ac60-4388-bd2d-873bd3ae1dba}, !- Handle
  {33fe93c5-9ae5-4a37-a4f8-49a0ecf5d52b}, !- Name
  {391ac2f4-faec-4b5b-8321-7d6685e023ca}, !- HVAC Component
  {ca59e27e-7a2b-4de5-b7fd-e8204c47805e}; !- Port 1

OS:PortList,
  {b3b759de-a63f-41b6-a049-9089544c6de5}, !- Handle
  {294a4919-962f-4f0c-a6f6-ac3b41f72d48}, !- Name
  {391ac2f4-faec-4b5b-8321-7d6685e023ca}; !- HVAC Component

OS:PortList,
  {0627660b-d5d1-4488-9c8f-cb1654b45c88}, !- Handle
  {06823d63-24ca-4eb7-8856-833bc7ff6f29}, !- Name
  {391ac2f4-faec-4b5b-8321-7d6685e023ca}, !- HVAC Component
  {9d081217-c322-4eeb-97e2-a48d6ce25fb4}; !- Port 1

OS:Sizing:Zone,
  {badf0d00-bc93-4412-86de-093f3550a252}, !- Handle
  {391ac2f4-faec-4b5b-8321-7d6685e023ca}, !- Zone or ZoneList Name
  SupplyAirTemperature,                   !- Zone Cooling Design Supply Air Temperature Input Method
  14,                                     !- Zone Cooling Design Supply Air Temperature {C}
  11.11,                                  !- Zone Cooling Design Supply Air Temperature Difference {deltaC}
  SupplyAirTemperature,                   !- Zone Heating Design Supply Air Temperature Input Method
  40,                                     !- Zone Heating Design Supply Air Temperature {C}
  11.11,                                  !- Zone Heating Design Supply Air Temperature Difference {deltaC}
  0.0085,                                 !- Zone Cooling Design Supply Air Humidity Ratio {kg-H2O/kg-air}
  0.008,                                  !- Zone Heating Design Supply Air Humidity Ratio {kg-H2O/kg-air}
  ,                                       !- Zone Heating Sizing Factor
  ,                                       !- Zone Cooling Sizing Factor
  DesignDay,                              !- Cooling Design Air Flow Method
  ,                                       !- Cooling Design Air Flow Rate {m3/s}
  ,                                       !- Cooling Minimum Air Flow per Zone Floor Area {m3/s-m2}
  ,                                       !- Cooling Minimum Air Flow {m3/s}
  ,                                       !- Cooling Minimum Air Flow Fraction
  DesignDay,                              !- Heating Design Air Flow Method
  ,                                       !- Heating Design Air Flow Rate {m3/s}
  ,                                       !- Heating Maximum Air Flow per Zone Floor Area {m3/s-m2}
  ,                                       !- Heating Maximum Air Flow {m3/s}
  ,                                       !- Heating Maximum Air Flow Fraction
  ,                                       !- Design Zone Air Distribution Effectiveness in Cooling Mode
  ,                                       !- Design Zone Air Distribution Effectiveness in Heating Mode
  No,                                     !- Account for Dedicated Outdoor Air System
  NeutralSupplyAir,                       !- Dedicated Outdoor Air System Control Strategy
  autosize,                               !- Dedicated Outdoor Air Low Setpoint Temperature for Design {C}
  autosize;                               !- Dedicated Outdoor Air High Setpoint Temperature for Design {C}

OS:ZoneHVAC:EquipmentList,
  {7135dff2-f86e-4221-980f-7c8878e4c35d}, !- Handle
  Zone HVAC Equipment List 2,             !- Name
  {391ac2f4-faec-4b5b-8321-7d6685e023ca}, !- Thermal Zone
  ,                                       !- Load Distribution Scheme
  {a36f57e3-8bbd-4893-a6be-538a457815d8}, !- Zone Equipment 1
  1,                                      !- Zone Equipment Cooling Sequence 1
  1;                                      !- Zone Equipment Heating or No-Load Sequence 1

OS:Space,
  {bc42d627-0072-49b8-aa7b-14645fc284b0}, !- Handle
  living space|unit 2,                    !- Name
  {5bee3e9a-e067-49a0-8e41-7267fe2e909b}, !- Space Type Name
  ,                                       !- Default Construction Set Name
  ,                                       !- Default Schedule Set Name
  ,                                       !- Direction of Relative North {deg}
  ,                                       !- X Origin {m}
  ,                                       !- Y Origin {m}
  ,                                       !- Z Origin {m}
  ,                                       !- Building Story Name
  {391ac2f4-faec-4b5b-8321-7d6685e023ca}, !- Thermal Zone Name
  ,                                       !- Part of Total Floor Area
  ,                                       !- Design Specification Outdoor Air Object Name
  {df07bc9a-f509-48c5-ac4b-1d8631aad402}; !- Building Unit Name

OS:Surface,
  {e95ba69d-045e-4a82-b07c-5d3b460d21ee}, !- Handle
  Surface 7,                              !- Name
  Floor,                                  !- Surface Type
  ,                                       !- Construction Name
  {bc42d627-0072-49b8-aa7b-14645fc284b0}, !- Space Name
  Foundation,                             !- Outside Boundary Condition
  ,                                       !- Outside Boundary Condition Object
  NoSun,                                  !- Sun Exposure
  NoWind,                                 !- Wind Exposure
  ,                                       !- View Factor to Ground
  ,                                       !- Number of Vertices
  0, 3.048, 0,                            !- X,Y,Z Vertex 1 {m}
  0, 15.9795688143396, 0,                 !- X,Y,Z Vertex 2 {m}
  6.46578440716979, 15.9795688143396, 0,  !- X,Y,Z Vertex 3 {m}
  6.46578440716979, 3.048, 0;             !- X,Y,Z Vertex 4 {m}

OS:Surface,
  {a974ddbe-4bdd-4f53-8d12-90c37a5e82a8}, !- Handle
  Surface 8,                              !- Name
  Wall,                                   !- Surface Type
  ,                                       !- Construction Name
  {bc42d627-0072-49b8-aa7b-14645fc284b0}, !- Space Name
  Outdoors,                               !- Outside Boundary Condition
  ,                                       !- Outside Boundary Condition Object
  SunExposed,                             !- Sun Exposure
  WindExposed,                            !- Wind Exposure
  ,                                       !- View Factor to Ground
  ,                                       !- Number of Vertices
  0, 15.9795688143396, 2.4384,            !- X,Y,Z Vertex 1 {m}
  0, 15.9795688143396, 0,                 !- X,Y,Z Vertex 2 {m}
  0, 3.048, 0,                            !- X,Y,Z Vertex 3 {m}
  0, 3.048, 2.4384;                       !- X,Y,Z Vertex 4 {m}

OS:Surface,
  {8e3c6af3-8b73-46d5-91cc-6d2b0b5f8b21}, !- Handle
  Surface 9,                              !- Name
  Wall,                                   !- Surface Type
  ,                                       !- Construction Name
  {bc42d627-0072-49b8-aa7b-14645fc284b0}, !- Space Name
  Outdoors,                               !- Outside Boundary Condition
  ,                                       !- Outside Boundary Condition Object
  SunExposed,                             !- Sun Exposure
  WindExposed,                            !- Wind Exposure
  ,                                       !- View Factor to Ground
  ,                                       !- Number of Vertices
  6.46578440716979, 15.9795688143396, 2.4384, !- X,Y,Z Vertex 1 {m}
  6.46578440716979, 15.9795688143396, 0,  !- X,Y,Z Vertex 2 {m}
  0, 15.9795688143396, 0,                 !- X,Y,Z Vertex 3 {m}
  0, 15.9795688143396, 2.4384;            !- X,Y,Z Vertex 4 {m}

OS:Surface,
  {537f47d9-0a2f-4bc8-8df4-f1750ad43a83}, !- Handle
  Surface 10,                             !- Name
  Wall,                                   !- Surface Type
  ,                                       !- Construction Name
  {bc42d627-0072-49b8-aa7b-14645fc284b0}, !- Space Name
  Surface,                                !- Outside Boundary Condition
  {b10518ec-e2fa-493e-9574-0281648ed7e6}, !- Outside Boundary Condition Object
  NoSun,                                  !- Sun Exposure
  NoWind,                                 !- Wind Exposure
  ,                                       !- View Factor to Ground
  ,                                       !- Number of Vertices
  6.46578440716979, 3.048, 2.4384,        !- X,Y,Z Vertex 1 {m}
  6.46578440716979, 3.048, 0,             !- X,Y,Z Vertex 2 {m}
  6.46578440716979, 15.9795688143396, 0,  !- X,Y,Z Vertex 3 {m}
  6.46578440716979, 15.9795688143396, 2.4384; !- X,Y,Z Vertex 4 {m}

OS:Surface,
  {6cd8fa4e-660d-4051-8ce6-c30d4036d168}, !- Handle
  Surface 11,                             !- Name
  Wall,                                   !- Surface Type
  ,                                       !- Construction Name
  {bc42d627-0072-49b8-aa7b-14645fc284b0}, !- Space Name
  Adiabatic,                              !- Outside Boundary Condition
  ,                                       !- Outside Boundary Condition Object
  NoSun,                                  !- Sun Exposure
  NoWind,                                 !- Wind Exposure
  ,                                       !- View Factor to Ground
  ,                                       !- Number of Vertices
  0, 3.048, 2.4384,                       !- X,Y,Z Vertex 1 {m}
  0, 3.048, 0,                            !- X,Y,Z Vertex 2 {m}
  6.46578440716979, 3.048, 0,             !- X,Y,Z Vertex 3 {m}
  6.46578440716979, 3.048, 2.4384;        !- X,Y,Z Vertex 4 {m}

OS:Surface,
  {23c25af8-42d8-418a-b354-3c0926eef04e}, !- Handle
  Surface 12,                             !- Name
  RoofCeiling,                            !- Surface Type
  ,                                       !- Construction Name
  {bc42d627-0072-49b8-aa7b-14645fc284b0}, !- Space Name
  Outdoors,                               !- Outside Boundary Condition
  ,                                       !- Outside Boundary Condition Object
  SunExposed,                             !- Sun Exposure
  WindExposed,                            !- Wind Exposure
  ,                                       !- View Factor to Ground