!- NOTE: Auto-generated from /test/osw_files/SFA_4units_1story_SL_UA_3Beds_2Baths_Denver_CentralAC_NoSetpoints.osw

OS:Version,
  {9dc77093-0ac5-40c6-a1c3-17306f9a9a5f}, !- Handle
  2.7.0;                                  !- Version Identifier

OS:Building,
  {cdd0f5c4-7052-43cf-bf73-c1cb476c2aa8}, !- Handle
  Building 1,                             !- Name
  ,                                       !- Building Sector Type
  0,                                      !- North Axis {deg}
  ,                                       !- Nominal Floor to Floor Height {m}
  ,                                       !- Space Type Name
  ,                                       !- Default Construction Set Name
  ,                                       !- Default Schedule Set Name
  1,                                      !- Standards Number of Stories
  1,                                      !- Standards Number of Above Ground Stories
  ,                                       !- Standards Template
  singlefamilyttached,                    !- Standards Building Type
  4;                                      !- Standards Number of Living Units

OS:Facility,
  {aa8e5269-5cb8-408d-bda2-af49b518c5bd}; !- Handle

OS:Site,
  {efd49295-480d-4394-849e-1d6f3cb4786d}, !- Handle
  Denver Intl Ap_CO_USA,                  !- Name
  39.83,                                  !- Latitude {deg}
  -104.65,                                !- Longitude {deg}
  -7,                                     !- Time Zone {hr}
  1650,                                   !- Elevation {m}
  ;                                       !- Terrain

OS:SimulationControl,
  {4b3d0b7e-d3ba-4dd9-a272-e5b54bebaab6}, !- Handle
  ,                                       !- Do Zone Sizing Calculation
  ,                                       !- Do System Sizing Calculation
  ,                                       !- Do Plant Sizing Calculation
  No;                                     !- Run Simulation for Sizing Periods

OS:Sizing:Parameters,
  {79d77e27-0e07-43b9-81d4-6d5e3af93d97}, !- Handle
  1.25,                                   !- Heating Sizing Factor
  1.15;                                   !- Cooling Sizing Factor

OS:Timestep,
  {083ccb81-28cb-4a22-8d58-4de61d36646e}, !- Handle
  6;                                      !- Number of Timesteps per Hour

OS:ShadowCalculation,
  {586e1f2c-bc7c-4565-9d39-2a394bd106c1}, !- Handle
  20,                                     !- Calculation Frequency
  200;                                    !- Maximum Figures in Shadow Overlap Calculations

OS:HeatBalanceAlgorithm,
  {2ac731e9-57dc-4a66-ae41-10a1fa3fd2f8}, !- Handle
  ConductionTransferFunction,             !- Algorithm
  200;                                    !- Surface Temperature Upper Limit {C}

OS:RunPeriod,
  {414388de-58ba-4675-89b6-f425460e40cb}, !- Handle
  Run Period 1,                           !- Name
  1,                                      !- Begin Month
  1,                                      !- Begin Day of Month
  12,                                     !- End Month
  31,                                     !- End Day of Month
  ,                                       !- Use Weather File Holidays and Special Days
  ,                                       !- Use Weather File Daylight Saving Period
  ,                                       !- Apply Weekend Holiday Rule
  ,                                       !- Use Weather File Rain Indicators
  ,                                       !- Use Weather File Snow Indicators
  ;                                       !- Number of Times Runperiod to be Repeated

OS:LifeCycleCost:Parameters,
  {227e3065-a766-4e96-9c1f-e1251a219d49}, !- Handle
  ,                                       !- Analysis Type
  ,                                       !- Discounting Convention
  ,                                       !- Inflation Approach
  ,                                       !- Real Discount Rate
  ,                                       !- Nominal Discount Rate
  ,                                       !- Inflation
  ,                                       !- Base Date Month
  ,                                       !- Base Date Year
  ,                                       !- Service Date Month
  ,                                       !- Service Date Year
  ;                                       !- Length of Study Period in Years

OS:SurfaceConvectionAlgorithm:Outside,
  {11195328-dfa7-4732-8d7f-ad93c4a3dd7a}, !- Handle
  DOE-2;                                  !- Algorithm

OS:SurfaceConvectionAlgorithm:Inside,
  {948342d2-b494-4be8-b715-43b238c79726}, !- Handle
  TARP;                                   !- Algorithm

OS:ZoneCapacitanceMultiplier:ResearchSpecial,
  {b069595e-99e1-4fa9-a71e-ad23d0028d83}, !- Handle
  ,                                       !- Temperature Capacity Multiplier
  15,                                     !- Humidity Capacity Multiplier
  ;                                       !- Carbon Dioxide Capacity Multiplier

OS:ThermalZone,
  {ff1d5e4c-d16c-4ea1-9245-702e11e55d7c}, !- Handle
  living zone,                            !- Name
  ,                                       !- Multiplier
  ,                                       !- Ceiling Height {m}
  ,                                       !- Volume {m3}
  ,                                       !- Floor Area {m2}
  ,                                       !- Zone Inside Convection Algorithm
  ,                                       !- Zone Outside Convection Algorithm
  ,                                       !- Zone Conditioning Equipment List Name
  {2a7836a8-6fce-46dd-9b8c-5e2be2ba840e}, !- Zone Air Inlet Port List
  {a3b64ee0-9cfd-4e45-a62f-05062e3dfb45}, !- Zone Air Exhaust Port List
  {4cd78379-4d2a-4590-a584-fd7dc97c3edb}, !- Zone Air Node Name
  {004052f9-7c89-4dc2-b309-f37cf7f810f0}, !- Zone Return Air Port List
  ,                                       !- Primary Daylighting Control Name
  ,                                       !- Fraction of Zone Controlled by Primary Daylighting Control
  ,                                       !- Secondary Daylighting Control Name
  ,                                       !- Fraction of Zone Controlled by Secondary Daylighting Control
  ,                                       !- Illuminance Map Name
  ,                                       !- Group Rendering Name
  ,                                       !- Thermostat Name
  No;                                     !- Use Ideal Air Loads

OS:Node,
  {0aa0b976-7095-4d57-a6f2-34a0a636bd75}, !- Handle
  Node 1,                                 !- Name
  {4cd78379-4d2a-4590-a584-fd7dc97c3edb}, !- Inlet Port
  ;                                       !- Outlet Port

OS:Connection,
  {4cd78379-4d2a-4590-a584-fd7dc97c3edb}, !- Handle
  {51ec747a-676b-4d1a-9760-1b64eb6c6210}, !- Name
  {ff1d5e4c-d16c-4ea1-9245-702e11e55d7c}, !- Source Object
  11,                                     !- Outlet Port
  {0aa0b976-7095-4d57-a6f2-34a0a636bd75}, !- Target Object
  2;                                      !- Inlet Port

OS:PortList,
  {2a7836a8-6fce-46dd-9b8c-5e2be2ba840e}, !- Handle
  {2300422c-cafd-4d46-9d62-72f393c3976e}, !- Name
  {ff1d5e4c-d16c-4ea1-9245-702e11e55d7c}, !- HVAC Component
  {f91823f2-381a-43f2-9534-d78b135836a5}; !- Port 1

OS:PortList,
  {a3b64ee0-9cfd-4e45-a62f-05062e3dfb45}, !- Handle
  {d0797e1f-0b2b-4437-bdf8-97b310d10ff5}, !- Name
  {ff1d5e4c-d16c-4ea1-9245-702e11e55d7c}; !- HVAC Component

OS:PortList,
  {004052f9-7c89-4dc2-b309-f37cf7f810f0}, !- Handle
  {749c544b-e865-47bd-a655-ab7ecea45fff}, !- Name
  {ff1d5e4c-d16c-4ea1-9245-702e11e55d7c}, !- HVAC Component
  {38030c64-5217-4479-b3a3-33651e73123a}; !- Port 1

OS:Sizing:Zone,
  {6e836a5a-2add-45e3-af95-cadc856d8a91}, !- Handle
  {ff1d5e4c-d16c-4ea1-9245-702e11e55d7c}, !- Zone or ZoneList Name
  SupplyAirTemperature,                   !- Zone Cooling Design Supply Air Temperature Input Method
  14,                                     !- Zone Cooling Design Supply Air Temperature {C}
  11.11,                                  !- Zone Cooling Design Supply Air Temperature Difference {deltaC}
  SupplyAirTemperature,                   !- Zone Heating Design Supply Air Temperature Input Method
  40,                                     !- Zone Heating Design Supply Air Temperature {C}
  11.11,                                  !- Zone Heating Design Supply Air Temperature Difference {deltaC}
  0.0085,                                 !- Zone Cooling Design Supply Air Humidity Ratio {kg-H2O/kg-air}
  0.008,                                  !- Zone Heating Design Supply Air Humidity Ratio {kg-H2O/kg-air}
  ,                                       !- Zone Heating Sizing Factor
  ,                                       !- Zone Cooling Sizing Factor
  DesignDay,                              !- Cooling Design Air Flow Method
  ,                                       !- Cooling Design Air Flow Rate {m3/s}
  ,                                       !- Cooling Minimum Air Flow per Zone Floor Area {m3/s-m2}
  ,                                       !- Cooling Minimum Air Flow {m3/s}
  ,                                       !- Cooling Minimum Air Flow Fraction
  DesignDay,                              !- Heating Design Air Flow Method
  ,                                       !- Heating Design Air Flow Rate {m3/s}
  ,                                       !- Heating Maximum Air Flow per Zone Floor Area {m3/s-m2}
  ,                                       !- Heating Maximum Air Flow {m3/s}
  ,                                       !- Heating Maximum Air Flow Fraction
  ,                                       !- Design Zone Air Distribution Effectiveness in Cooling Mode
  ,                                       !- Design Zone Air Distribution Effectiveness in Heating Mode
  No,                                     !- Account for Dedicated Outdoor Air System
  NeutralSupplyAir,                       !- Dedicated Outdoor Air System Control Strategy
  autosize,                               !- Dedicated Outdoor Air Low Setpoint Temperature for Design {C}
  autosize;                               !- Dedicated Outdoor Air High Setpoint Temperature for Design {C}

OS:ZoneHVAC:EquipmentList,
  {36f7adcf-cadc-46a9-8398-316223b056d3}, !- Handle
  Zone HVAC Equipment List 1,             !- Name
  {ff1d5e4c-d16c-4ea1-9245-702e11e55d7c}, !- Thermal Zone
  ,                                       !- Load Distribution Scheme
  {7aba1a4e-862f-4f50-acb7-1924455a5d43}, !- Zone Equipment 1
  1,                                      !- Zone Equipment Cooling Sequence 1
  1;                                      !- Zone Equipment Heating or No-Load Sequence 1

OS:Space,
  {14204a92-9733-409d-9307-4cdb68d72d31}, !- Handle
  living space,                           !- Name
  {3010dc6b-cbc8-4464-8df9-7541ad34ee54}, !- Space Type Name
  ,                                       !- Default Construction Set Name
  ,                                       !- Default Schedule Set Name
  ,                                       !- Direction of Relative North {deg}
  ,                                       !- X Origin {m}
  ,                                       !- Y Origin {m}
  ,                                       !- Z Origin {m}
  ,                                       !- Building Story Name
  {ff1d5e4c-d16c-4ea1-9245-702e11e55d7c}, !- Thermal Zone Name
  ,                                       !- Part of Total Floor Area
  ,                                       !- Design Specification Outdoor Air Object Name
  {e2da4c09-bc61-47b8-8d59-6a80214df027}; !- Building Unit Name

OS:Surface,
  {df59a433-86e3-4028-9f96-4cde525edb1e}, !- Handle
  Surface 1,                              !- Name
  Floor,                                  !- Surface Type
  ,                                       !- Construction Name
  {14204a92-9733-409d-9307-4cdb68d72d31}, !- Space Name
  Foundation,                             !- Outside Boundary Condition
  ,                                       !- Outside Boundary Condition Object
  NoSun,                                  !- Sun Exposure
  NoWind,                                 !- Wind Exposure
  ,                                       !- View Factor to Ground
  ,                                       !- Number of Vertices
  0, -12.9315688143396, 0,                !- X,Y,Z Vertex 1 {m}
  0, 0, 0,                                !- X,Y,Z Vertex 2 {m}
  6.46578440716979, 0, 0,                 !- X,Y,Z Vertex 3 {m}
  6.46578440716979, -12.9315688143396, 0; !- X,Y,Z Vertex 4 {m}

OS:Surface,
  {1c3f143b-9472-4be0-9a4e-e076a9b84ca6}, !- Handle
  Surface 2,                              !- Name
  Wall,                                   !- Surface Type
  ,                                       !- Construction Name
  {14204a92-9733-409d-9307-4cdb68d72d31}, !- Space Name
  Outdoors,                               !- Outside Boundary Condition
  ,                                       !- Outside Boundary Condition Object
  SunExposed,                             !- Sun Exposure
  WindExposed,                            !- Wind Exposure
  ,                                       !- View Factor to Ground
  ,                                       !- Number of Vertices
  0, 0, 2.4384,                           !- X,Y,Z Vertex 1 {m}
  0, 0, 0,                                !- X,Y,Z Vertex 2 {m}
  0, -12.9315688143396, 0,                !- X,Y,Z Vertex 3 {m}
  0, -12.9315688143396, 2.4384;           !- X,Y,Z Vertex 4 {m}

OS:Surface,
  {91dce7cb-ed72-4be6-8a24-221fca6042df}, !- Handle
  Surface 3,                              !- Name
  Wall,                                   !- Surface Type
  ,                                       !- Construction Name
  {14204a92-9733-409d-9307-4cdb68d72d31}, !- Space Name
  Outdoors,                               !- Outside Boundary Condition
  ,                                       !- Outside Boundary Condition Object
  SunExposed,                             !- Sun Exposure
  WindExposed,                            !- Wind Exposure
  ,                                       !- View Factor to Ground
  ,                                       !- Number of Vertices
  6.46578440716979, 0, 2.4384,            !- X,Y,Z Vertex 1 {m}
  6.46578440716979, 0, 0,                 !- X,Y,Z Vertex 2 {m}
  0, 0, 0,                                !- X,Y,Z Vertex 3 {m}
  0, 0, 2.4384;                           !- X,Y,Z Vertex 4 {m}

OS:Surface,
  {f60af330-ac5b-4961-aa64-108437acc254}, !- Handle
  Surface 4,                              !- Name
  Wall,                                   !- Surface Type
  ,                                       !- Construction Name
  {14204a92-9733-409d-9307-4cdb68d72d31}, !- Space Name
  Surface,                                !- Outside Boundary Condition
  {56169419-ba9f-4e43-83e5-d705f2fb0208}, !- Outside Boundary Condition Object
  NoSun,                                  !- Sun Exposure
  NoWind,                                 !- Wind Exposure
  ,                                       !- View Factor to Ground
  ,                                       !- Number of Vertices
  6.46578440716979, -12.9315688143396, 2.4384, !- X,Y,Z Vertex 1 {m}
  6.46578440716979, -12.9315688143396, 0, !- X,Y,Z Vertex 2 {m}
  6.46578440716979, 0, 0,                 !- X,Y,Z Vertex 3 {m}
  6.46578440716979, 0, 2.4384;            !- X,Y,Z Vertex 4 {m}

OS:Surface,
  {ac10bf8f-bc6c-4fd6-8098-1fe4f0ce9464}, !- Handle
  Surface 5,                              !- Name
  Wall,                                   !- Surface Type
  ,                                       !- Construction Name
  {14204a92-9733-409d-9307-4cdb68d72d31}, !- Space Name
  Outdoors,                               !- Outside Boundary Condition
  ,                                       !- Outside Boundary Condition Object
  SunExposed,                             !- Sun Exposure
  WindExposed,                            !- Wind Exposure
  ,                                       !- View Factor to Ground
  ,                                       !- Number of Vertices
  0, -12.9315688143396, 2.4384,           !- X,Y,Z Vertex 1 {m}
  0, -12.9315688143396, 0,                !- X,Y,Z Vertex 2 {m}
  6.46578440716979, -12.9315688143396, 0, !- X,Y,Z Vertex 3 {m}
  6.46578440716979, -12.9315688143396, 2.4384; !- X,Y,Z Vertex 4 {m}

OS:Surface,
  {54ffd5b8-4e1b-4003-add8-ca81cf31e8b9}, !- Handle
  Surface 6,                              !- Name
  RoofCeiling,                            !- Surface Type
  ,                                       !- Construction Name
  {14204a92-9733-409d-9307-4cdb68d72d31}, !- Space Name
  Surface,                                !- Outside Boundary Condition
  {20d1713c-5642-442a-b41b-ccece179b81d}, !- Outside Boundary Condition Object
  NoSun,                                  !- Sun Exposure
  NoWind,                                 !- Wind Exposure
  ,                                       !- View Factor to Ground
  ,                                       !- Number of Vertices
  6.46578440716979, -12.9315688143396, 2.4384, !- X,Y,Z Vertex 1 {m}
  6.46578440716979, 0, 2.4384,            !- X,Y,Z Vertex 2 {m}
  0, 0, 2.4384,                           !- X,Y,Z Vertex 3 {m}
  0, -12.9315688143396, 2.4384;           !- X,Y,Z Vertex 4 {m}

OS:SpaceType,
  {3010dc6b-cbc8-4464-8df9-7541ad34ee54}, !- Handle
  Space Type 1,                           !- Name
  ,                                       !- Default Construction Set Name
  ,                                       !- Default Schedule Set Name
  ,                                       !- Group Rendering Name
  ,                                       !- Design Specification Outdoor Air Object Name
  ,                                       !- Standards Template
  ,                                       !- Standards Building Type
  living;                                 !- Standards Space Type

OS:ThermalZone,
  {cd507512-ed3e-43c3-a8d9-a79afc5721ce}, !- Handle
  living zone|unit 2,                     !- Name
  ,                                       !- Multiplier
  ,                                       !- Ceiling Height {m}
  ,                                       !- Volume {m3}
  ,                                       !- Floor Area {m2}
  ,                                       !- Zone Inside Convection Algorithm
  ,                                       !- Zone Outside Convection Algorithm
  ,                                       !- Zone Conditioning Equipment List Name
  {c2e5d27c-cf26-4230-9c92-0a133701c0ed}, !- Zone Air Inlet Port List
  {1b8440a4-ec83-4d68-9362-afb4e550ef53}, !- Zone Air Exhaust Port List
  {00ac9066-7733-4e9a-a547-bf6a4c9824b0}, !- Zone Air Node Name
  {3690a7a3-3358-491d-8fac-7b5d5d88d5d9}, !- Zone Return Air Port List
  ,                                       !- Primary Daylighting Control Name
  ,                                       !- Fraction of Zone Controlled by Primary Daylighting Control
  ,                                       !- Secondary Daylighting Control Name
  ,                                       !- Fraction of Zone Controlled by Secondary Daylighting Control
  ,                                       !- Illuminance Map Name
  ,                                       !- Group Rendering Name
  ,                                       !- Thermostat Name
  No;                                     !- Use Ideal Air Loads

OS:Node,
  {66fd6383-f71b-4404-9056-bc7243e4f49c}, !- Handle
  Node 2,                                 !- Name
  {00ac9066-7733-4e9a-a547-bf6a4c9824b0}, !- Inlet Port
  ;                                       !- Outlet Port

OS:Connection,
  {00ac9066-7733-4e9a-a547-bf6a4c9824b0}, !- Handle
  {5ee34d1c-d5b2-41a1-b5a1-e28b3c61aa9a}, !- Name
  {cd507512-ed3e-43c3-a8d9-a79afc5721ce}, !- Source Object
  11,                                     !- Outlet Port
  {66fd6383-f71b-4404-9056-bc7243e4f49c}, !- Target Object
  2;                                      !- Inlet Port

OS:PortList,
  {c2e5d27c-cf26-4230-9c92-0a133701c0ed}, !- Handle
  {132eaf94-f348-4b7b-a269-13430c5d9a46}, !- Name
  {cd507512-ed3e-43c3-a8d9-a79afc5721ce}, !- HVAC Component
  {1b7fc2e9-727a-4c08-a04f-6205ff801952}; !- Port 1

OS:PortList,
  {1b8440a4-ec83-4d68-9362-afb4e550ef53}, !- Handle
  {9bd82bbf-6d95-492f-8570-0639c057cd0d}, !- Name
  {cd507512-ed3e-43c3-a8d9-a79afc5721ce}; !- HVAC Component

OS:PortList,
  {3690a7a3-3358-491d-8fac-7b5d5d88d5d9}, !- Handle
  {bb956e83-da49-4d20-8515-51e45384da6f}, !- Name
  {cd507512-ed3e-43c3-a8d9-a79afc5721ce}, !- HVAC Component
  {e6f3c53b-e5f5-4e3e-a900-7fa8a74f391f}; !- Port 1

OS:Sizing:Zone,
  {638ab08a-69c9-49fc-8c7a-8a4bcfe8d722}, !- Handle
  {cd507512-ed3e-43c3-a8d9-a79afc5721ce}, !- Zone or ZoneList Name
  SupplyAirTemperature,                   !- Zone Cooling Design Supply Air Temperature Input Method
  14,                                     !- Zone Cooling Design Supply Air Temperature {C}
  11.11,                                  !- Zone Cooling Design Supply Air Temperature Difference {deltaC}
  SupplyAirTemperature,                   !- Zone Heating Design Supply Air Temperature Input Method
  40,                                     !- Zone Heating Design Supply Air Temperature {C}
  11.11,                                  !- Zone Heating Design Supply Air Temperature Difference {deltaC}
  0.0085,                                 !- Zone Cooling Design Supply Air Humidity Ratio {kg-H2O/kg-air}
  0.008,                                  !- Zone Heating Design Supply Air Humidity Ratio {kg-H2O/kg-air}
  ,                                       !- Zone Heating Sizing Factor
  ,                                       !- Zone Cooling Sizing Factor
  DesignDay,                              !- Cooling Design Air Flow Method
  ,                                       !- Cooling Design Air Flow Rate {m3/s}
  ,                                       !- Cooling Minimum Air Flow per Zone Floor Area {m3/s-m2}
  ,                                       !- Cooling Minimum Air Flow {m3/s}
  ,                                       !- Cooling Minimum Air Flow Fraction
  DesignDay,                              !- Heating Design Air Flow Method
  ,                                       !- Heating Design Air Flow Rate {m3/s}
  ,                                       !- Heating Maximum Air Flow per Zone Floor Area {m3/s-m2}
  ,                                       !- Heating Maximum Air Flow {m3/s}
  ,                                       !- Heating Maximum Air Flow Fraction
  ,                                       !- Design Zone Air Distribution Effectiveness in Cooling Mode
  ,                                       !- Design Zone Air Distribution Effectiveness in Heating Mode
  No,                                     !- Account for Dedicated Outdoor Air System
  NeutralSupplyAir,                       !- Dedicated Outdoor Air System Control Strategy
  autosize,                               !- Dedicated Outdoor Air Low Setpoint Temperature for Design {C}
  autosize;                               !- Dedicated Outdoor Air High Setpoint Temperature for Design {C}

OS:ZoneHVAC:EquipmentList,
  {4f53881d-f979-4119-a172-c3baa8ff127d}, !- Handle
  Zone HVAC Equipment List 2,             !- Name
  {cd507512-ed3e-43c3-a8d9-a79afc5721ce}, !- Thermal Zone
  ,                                       !- Load Distribution Scheme
  {41319c8a-f67e-4902-837e-2b53ac94030f}, !- Zone Equipment 1
  1,                                      !- Zone Equipment Cooling Sequence 1
  1;                                      !- Zone Equipment Heating or No-Load Sequence 1

OS:Space,
  {ad275bb0-d173-4067-96c5-9154c7963480}, !- Handle
  living space|unit 2|story 1,            !- Name
  {3010dc6b-cbc8-4464-8df9-7541ad34ee54}, !- Space Type Name
  ,                                       !- Default Construction Set Name
  ,                                       !- Default Schedule Set Name
  -0,                                     !- Direction of Relative North {deg}
  0,                                      !- X Origin {m}
  0,                                      !- Y Origin {m}
  0,                                      !- Z Origin {m}
  ,                                       !- Building Story Name
  {cd507512-ed3e-43c3-a8d9-a79afc5721ce}, !- Thermal Zone Name
  ,                                       !- Part of Total Floor Area
  ,                                       !- Design Specification Outdoor Air Object Name
  {66703352-5fc1-4997-b5cc-5a23a1f2b317}; !- Building Unit Name

OS:Surface,
  {c9913ba6-8983-4f98-8743-e37ebf5f904e}, !- Handle
  Surface 12,                             !- Name
  Wall,                                   !- Surface Type
  ,                                       !- Construction Name
  {ad275bb0-d173-4067-96c5-9154c7963480}, !- Space Name
  Outdoors,                               !- Outside Boundary Condition
  ,                                       !- Outside Boundary Condition Object
  SunExposed,                             !- Sun Exposure
  WindExposed,                            !- Wind Exposure
  ,                                       !- View Factor to Ground
  ,                                       !- Number of Vertices
  6.46578440716979, -12.9315688143396, 2.4384, !- X,Y,Z Vertex 1 {m}
  6.46578440716979, -12.9315688143396, 0, !- X,Y,Z Vertex 2 {m}
  12.9315688143396, -12.9315688143396, 0, !- X,Y,Z Vertex 3 {m}
  12.9315688143396, -12.9315688143396, 2.4384; !- X,Y,Z Vertex 4 {m}

OS:Surface,
  {60725e34-13cd-427d-b124-6243fafbceb1}, !- Handle
  Surface 13,                             !- Name
  RoofCeiling,                            !- Surface Type
  ,                                       !- Construction Name
  {ad275bb0-d173-4067-96c5-9154c7963480}, !- Space Name
  Surface,                                !- Outside Boundary Condition
  {e3ef646c-1552-43ec-9bed-18c132451116}, !- Outside Boundary Condition Object
  NoSun,                                  !- Sun Exposure
  NoWind,                                 !- Wind Exposure
  ,                                       !- View Factor to Ground
  ,                                       !- Number of Vertices
  12.9315688143396, -12.9315688143396, 2.4384, !- X,Y,Z Vertex 1 {m}
  12.9315688143396, 0, 2.4384,            !- X,Y,Z Vertex 2 {m}
  6.46578440716979, 0, 2.4384,            !- X,Y,Z Vertex 3 {m}
  6.46578440716979, -12.9315688143396, 2.4384; !- X,Y,Z Vertex 4 {m}

OS:Surface,
  {d3460de0-bb02-4ef5-ba06-aac591ced191}, !- Handle
  Surface 14,                             !- Name
  Floor,                                  !- Surface Type
  ,                                       !- Construction Name
  {ad275bb0-d173-4067-96c5-9154c7963480}, !- Space Name
  Foundation,                             !- Outside Boundary Condition
  ,                                       !- Outside Boundary Condition Object
  NoSun,                                  !- Sun Exposure
  NoWind,                                 !- Wind Exposure
  ,                                       !- View Factor to Ground
  ,                                       !- Number of Vertices
  6.46578440716979, -12.9315688143396, 0, !- X,Y,Z Vertex 1 {m}
  6.46578440716979, 0, 0,                 !- X,Y,Z Vertex 2 {m}
  12.9315688143396, 0, 0,                 !- X,Y,Z Vertex 3 {m}
  12.9315688143396, -12.9315688143396, 0; !- X,Y,Z Vertex 4 {m}

OS:Surface,
  {56169419-ba9f-4e43-83e5-d705f2fb0208}, !- Handle
  Surface 15,                             !- Name
  Wall,                                   !- Surface Type
  ,                                       !- Construction Name
  {ad275bb0-d173-4067-96c5-9154c7963480}, !- Space Name
  Surface,                                !- Outside Boundary Condition
  {f60af330-ac5b-4961-aa64-108437acc254}, !- Outside Boundary Condition Object
  NoSun,                                  !- Sun Exposure
  NoWind,                                 !- Wind Exposure
  ,                                       !- View Factor to Ground
  ,                                       !- Number of Vertices
  6.46578440716979, 0, 2.4384,            !- X,Y,Z Vertex 1 {m}
  6.46578440716979, 0, 0,                 !- X,Y,Z Vertex 2 {m}
  6.46578440716979, -12.9315688143396, 0, !- X,Y,Z Vertex 3 {m}
  6.46578440716979, -12.9315688143396, 2.4384; !- X,Y,Z Vertex 4 {m}

OS:Surface,
  {ea53f1e4-2b53-4202-9be6-c0f8c1327ad0}, !- Handle
  Surface 16,                             !- Name
  Wall,                                   !- Surface Type
  ,                                       !- Construction Name
  {ad275bb0-d173-4067-96c5-9154c7963480}, !- Space Name
  Outdoors,                               !- Outside Boundary Condition
  ,                                       !- Outside Boundary Condition Object
  SunExposed,                             !- Sun Exposure
  WindExposed,                            !- Wind Exposure
  ,                                       !- View Factor to Ground
  ,                                       !- Number of Vertices
  12.9315688143396, 0, 2.4384,            !- X,Y,Z Vertex 1 {m}
  12.9315688143396, 0, 0,                 !- X,Y,Z Vertex 2 {m}
  6.46578440716979, 0, 0,                 !- X,Y,Z Vertex 3 {m}
  6.46578440716979, 0, 2.4384;            !- X,Y,Z Vertex 4 {m}

OS:Surface,
  {21aa0ab8-69e3-4aa9-b4c4-0263cc994641}, !- Handle
  Surface 17,                             !- Name
  Wall,                                   !- Surface Type
  ,                                       !- Construction Name
  {ad275bb0-d173-4067-96c5-9154c7963480}, !- Space Name
  Surface,                                !- Outside Boundary Condition
  {3249cd15-26cd-4ad0-a518-9407c8ee64d8}, !- Outside Boundary Condition Object
  NoSun,                                  !- Sun Exposure
  NoWind,                                 !- Wind Exposure