!- NOTE: Auto-generated from /test/osw_files/SFA_4units_1story_SL_UA_3Beds_2Baths_Denver_CentralAC_NoSetpoints.osw

OS:Version,
  {21ad0e44-4caf-4a49-8e4e-9a85c6a9137c}, !- Handle
  2.5.1;                                  !- Version Identifier

OS:Building,
  {7be8e6b8-a059-49b3-85fe-0782c8fef908}, !- Handle
  Building 1,                             !- Name
  ,                                       !- Building Sector Type
  0,                                      !- North Axis {deg}
  ,                                       !- Nominal Floor to Floor Height {m}
  ,                                       !- Space Type Name
  ,                                       !- Default Construction Set Name
  ,                                       !- Default Schedule Set Name
  1,                                      !- Standards Number of Stories
  1,                                      !- Standards Number of Above Ground Stories
  singlefamilyttached,                    !- Standards Building Type
  4;                                      !- Standards Number of Living Units

OS:Facility,
  {e5fa81ab-3714-416c-b81c-2c1ba599ba93}; !- Handle

OS:Site,
  {90cd405f-99eb-4dd0-913e-da3b8216a588}, !- Handle
  Denver Intl Ap_CO_USA,                  !- Name
  39.83,                                  !- Latitude {deg}
  -104.65,                                !- Longitude {deg}
  -7,                                     !- Time Zone {hr}
  1650,                                   !- Elevation {m}
  ;                                       !- Terrain

OS:SimulationControl,
  {2cd4c944-18e4-4e80-a9d5-6b44b80c8686}, !- Handle
  ,                                       !- Do Zone Sizing Calculation
  ,                                       !- Do System Sizing Calculation
  ,                                       !- Do Plant Sizing Calculation
  No;                                     !- Run Simulation for Sizing Periods

OS:Sizing:Parameters,
  {8563c9b9-937f-49b7-bc3a-ad362ebf72a1}, !- Handle
  1.25,                                   !- Heating Sizing Factor
  1.15;                                   !- Cooling Sizing Factor

OS:Timestep,
  {681a06a6-2de6-43d5-9e20-735ec2b46379}, !- Handle
  6;                                      !- Number of Timesteps per Hour

OS:ShadowCalculation,
  {531fe25f-81e8-4111-9162-22328be6c3f1}, !- Handle
  20,                                     !- Calculation Frequency
  200;                                    !- Maximum Figures in Shadow Overlap Calculations

OS:HeatBalanceAlgorithm,
  {fe9ed40f-1e22-4ec8-a7b5-bbd20f4e3429}, !- Handle
  ConductionTransferFunction,             !- Algorithm
  200;                                    !- Surface Temperature Upper Limit {C}

OS:RunPeriod,
  {ba4fe25d-4134-4940-89c9-29577370e972}, !- Handle
  Run Period 1,                           !- Name
  1,                                      !- Begin Month
  1,                                      !- Begin Day of Month
  12,                                     !- End Month
  31,                                     !- End Day of Month
  ,                                       !- Use Weather File Holidays and Special Days
  ,                                       !- Use Weather File Daylight Saving Period
  ,                                       !- Apply Weekend Holiday Rule
  ,                                       !- Use Weather File Rain Indicators
  ,                                       !- Use Weather File Snow Indicators
  ;                                       !- Number of Times Runperiod to be Repeated

OS:LifeCycleCost:Parameters,
  {5a1f3bb9-14e9-4098-bf9e-f58d0139244c}, !- Handle
  ,                                       !- Analysis Type
  ,                                       !- Discounting Convention
  ,                                       !- Inflation Approach
  ,                                       !- Real Discount Rate
  ,                                       !- Nominal Discount Rate
  ,                                       !- Inflation
  ,                                       !- Base Date Month
  ,                                       !- Base Date Year
  ,                                       !- Service Date Month
  ,                                       !- Service Date Year
  ;                                       !- Length of Study Period in Years

OS:ThermalZone,
  {7d4fb12e-dd46-4264-846f-2224470878fe}, !- Handle
  living zone,                            !- Name
  ,                                       !- Multiplier
  ,                                       !- Ceiling Height {m}
  ,                                       !- Volume {m3}
  ,                                       !- Floor Area {m2}
  ,                                       !- Zone Inside Convection Algorithm
  ,                                       !- Zone Outside Convection Algorithm
  ,                                       !- Zone Conditioning Equipment List Name
  {c5c9f27f-a22f-4b66-9bbf-2ebbf03ffc97}, !- Zone Air Inlet Port List
  {a56ef066-5f97-4568-97a3-00e0c2149452}, !- Zone Air Exhaust Port List
  {24add336-4ef1-4377-85d4-247e950e4108}, !- Zone Air Node Name
  {864ddd0e-d0bf-4b44-9038-8e6635eb2d47}, !- Zone Return Air Node Name
  ,                                       !- Primary Daylighting Control Name
  ,                                       !- Fraction of Zone Controlled by Primary Daylighting Control
  ,                                       !- Secondary Daylighting Control Name
  ,                                       !- Fraction of Zone Controlled by Secondary Daylighting Control
  ,                                       !- Illuminance Map Name
  ,                                       !- Group Rendering Name
  ,                                       !- Thermostat Name
  No;                                     !- Use Ideal Air Loads

OS:Node,
  {41cd067b-092f-4f22-92da-c510221aa56c}, !- Handle
  Node 1,                                 !- Name
  {24add336-4ef1-4377-85d4-247e950e4108}, !- Inlet Port
  ;                                       !- Outlet Port

OS:Connection,
  {24add336-4ef1-4377-85d4-247e950e4108}, !- Handle
  {ad1bb991-d740-44f0-a7af-6fc52309fb85}, !- Name
  {7d4fb12e-dd46-4264-846f-2224470878fe}, !- Source Object
  11,                                     !- Outlet Port
  {41cd067b-092f-4f22-92da-c510221aa56c}, !- Target Object
  2;                                      !- Inlet Port

OS:PortList,
  {c5c9f27f-a22f-4b66-9bbf-2ebbf03ffc97}, !- Handle
  {717dbf8e-27d4-4693-a98a-ff6ad1fd34dc}, !- Name
  {7d4fb12e-dd46-4264-846f-2224470878fe}, !- HVAC Component
  {31ee8763-ad83-46e7-9557-c6fe820bfd8f}; !- Port 1

OS:PortList,
  {a56ef066-5f97-4568-97a3-00e0c2149452}, !- Handle
  {77129fb1-8290-4b78-b9ac-26eec8195e5e}, !- Name
  {7d4fb12e-dd46-4264-846f-2224470878fe}; !- HVAC Component

OS:Sizing:Zone,
  {a1306966-8c62-416e-a458-9348457b4daa}, !- Handle
  {7d4fb12e-dd46-4264-846f-2224470878fe}, !- Zone or ZoneList Name
  SupplyAirTemperature,                   !- Zone Cooling Design Supply Air Temperature Input Method
  14,                                     !- Zone Cooling Design Supply Air Temperature {C}
  11.11,                                  !- Zone Cooling Design Supply Air Temperature Difference {deltaC}
  SupplyAirTemperature,                   !- Zone Heating Design Supply Air Temperature Input Method
  40,                                     !- Zone Heating Design Supply Air Temperature {C}
  11.11,                                  !- Zone Heating Design Supply Air Temperature Difference {deltaC}
  0.0085,                                 !- Zone Cooling Design Supply Air Humidity Ratio {kg-H2O/kg-air}
  0.008,                                  !- Zone Heating Design Supply Air Humidity Ratio {kg-H2O/kg-air}
  ,                                       !- Zone Heating Sizing Factor
  ,                                       !- Zone Cooling Sizing Factor
  DesignDay,                              !- Cooling Design Air Flow Method
  ,                                       !- Cooling Design Air Flow Rate {m3/s}
  ,                                       !- Cooling Minimum Air Flow per Zone Floor Area {m3/s-m2}
  ,                                       !- Cooling Minimum Air Flow {m3/s}
  ,                                       !- Cooling Minimum Air Flow Fraction
  DesignDay,                              !- Heating Design Air Flow Method
  ,                                       !- Heating Design Air Flow Rate {m3/s}
  ,                                       !- Heating Maximum Air Flow per Zone Floor Area {m3/s-m2}
  ,                                       !- Heating Maximum Air Flow {m3/s}
  ,                                       !- Heating Maximum Air Flow Fraction
  ,                                       !- Design Zone Air Distribution Effectiveness in Cooling Mode
  ,                                       !- Design Zone Air Distribution Effectiveness in Heating Mode
  No,                                     !- Account for Dedicated Outdoor Air System
  NeutralSupplyAir,                       !- Dedicated Outdoor Air System Control Strategy
  autosize,                               !- Dedicated Outdoor Air Low Setpoint Temperature for Design {C}
  autosize;                               !- Dedicated Outdoor Air High Setpoint Temperature for Design {C}

OS:ZoneHVAC:EquipmentList,
  {5be5b7b4-653c-43ec-b8b5-7967b4befdcb}, !- Handle
  Zone HVAC Equipment List 1,             !- Name
  {7d4fb12e-dd46-4264-846f-2224470878fe}, !- Thermal Zone
  {75cb9a98-e606-4e77-b91e-89559b148dfa}, !- Zone Equipment 1
  1,                                      !- Zone Equipment Cooling Sequence 1
  1;                                      !- Zone Equipment Heating or No-Load Sequence 1

OS:Space,
  {0b6874e6-f821-4d96-8c3b-39c79e0adc58}, !- Handle
  living space,                           !- Name
  {cebd14e6-a1cc-4db0-996e-b26aa839ac27}, !- Space Type Name
  ,                                       !- Default Construction Set Name
  ,                                       !- Default Schedule Set Name
  ,                                       !- Direction of Relative North {deg}
  ,                                       !- X Origin {m}
  ,                                       !- Y Origin {m}
  ,                                       !- Z Origin {m}
  ,                                       !- Building Story Name
  {7d4fb12e-dd46-4264-846f-2224470878fe}, !- Thermal Zone Name
  ,                                       !- Part of Total Floor Area
  ,                                       !- Design Specification Outdoor Air Object Name
  {b4ec6530-5d30-4d09-930f-84c939a850ce}; !- Building Unit Name

OS:Surface,
  {f26baef0-1764-4784-b4c9-262bff256b1a}, !- Handle
  Surface 1,                              !- Name
  Floor,                                  !- Surface Type
  ,                                       !- Construction Name
  {0b6874e6-f821-4d96-8c3b-39c79e0adc58}, !- Space Name
  Foundation,                             !- Outside Boundary Condition
  ,                                       !- Outside Boundary Condition Object
  NoSun,                                  !- Sun Exposure
  NoWind,                                 !- Wind Exposure
  ,                                       !- View Factor to Ground
  ,                                       !- Number of Vertices
  0, -12.9315688143396, 0,                !- X,Y,Z Vertex 1 {m}
  0, 0, 0,                                !- X,Y,Z Vertex 2 {m}
  6.46578440716979, 0, 0,                 !- X,Y,Z Vertex 3 {m}
  6.46578440716979, -12.9315688143396, 0; !- X,Y,Z Vertex 4 {m}

OS:Surface,
  {053fb68b-1694-4d25-9005-c71e136eebf1}, !- Handle
  Surface 2,                              !- Name
  Wall,                                   !- Surface Type
  ,                                       !- Construction Name
  {0b6874e6-f821-4d96-8c3b-39c79e0adc58}, !- Space Name
  Outdoors,                               !- Outside Boundary Condition
  ,                                       !- Outside Boundary Condition Object
  SunExposed,                             !- Sun Exposure
  WindExposed,                            !- Wind Exposure
  ,                                       !- View Factor to Ground
  ,                                       !- Number of Vertices
  0, 0, 2.4384,                           !- X,Y,Z Vertex 1 {m}
  0, 0, 0,                                !- X,Y,Z Vertex 2 {m}
  0, -12.9315688143396, 0,                !- X,Y,Z Vertex 3 {m}
  0, -12.9315688143396, 2.4384;           !- X,Y,Z Vertex 4 {m}

OS:Surface,
  {11df5289-6bad-4934-9671-57792ff3e96b}, !- Handle
  Surface 3,                              !- Name
  Wall,                                   !- Surface Type
  ,                                       !- Construction Name
  {0b6874e6-f821-4d96-8c3b-39c79e0adc58}, !- Space Name
  Outdoors,                               !- Outside Boundary Condition
  ,                                       !- Outside Boundary Condition Object
  SunExposed,                             !- Sun Exposure
  WindExposed,                            !- Wind Exposure
  ,                                       !- View Factor to Ground
  ,                                       !- Number of Vertices
  6.46578440716979, 0, 2.4384,            !- X,Y,Z Vertex 1 {m}
  6.46578440716979, 0, 0,                 !- X,Y,Z Vertex 2 {m}
  0, 0, 0,                                !- X,Y,Z Vertex 3 {m}
  0, 0, 2.4384;                           !- X,Y,Z Vertex 4 {m}

OS:Surface,
  {d1acc2c5-0cb1-432b-bab1-2d6495310db1}, !- Handle
  Surface 4,                              !- Name
  Wall,                                   !- Surface Type
  ,                                       !- Construction Name
  {0b6874e6-f821-4d96-8c3b-39c79e0adc58}, !- Space Name
  Surface,                                !- Outside Boundary Condition
  {cd2bd646-0816-446e-b2e0-e7ad7f34d3e8}, !- Outside Boundary Condition Object
  NoSun,                                  !- Sun Exposure
  NoWind,                                 !- Wind Exposure
  ,                                       !- View Factor to Ground
  ,                                       !- Number of Vertices
  6.46578440716979, -12.9315688143396, 2.4384, !- X,Y,Z Vertex 1 {m}
  6.46578440716979, -12.9315688143396, 0, !- X,Y,Z Vertex 2 {m}
  6.46578440716979, 0, 0,                 !- X,Y,Z Vertex 3 {m}
  6.46578440716979, 0, 2.4384;            !- X,Y,Z Vertex 4 {m}

OS:Surface,
  {b942c6cb-54a8-4242-8b49-6eae3b34ebb2}, !- Handle
  Surface 5,                              !- Name
  Wall,                                   !- Surface Type
  ,                                       !- Construction Name
  {0b6874e6-f821-4d96-8c3b-39c79e0adc58}, !- Space Name
  Outdoors,                               !- Outside Boundary Condition
  ,                                       !- Outside Boundary Condition Object
  SunExposed,                             !- Sun Exposure
  WindExposed,                            !- Wind Exposure
  ,                                       !- View Factor to Ground
  ,                                       !- Number of Vertices
  0, -12.9315688143396, 2.4384,           !- X,Y,Z Vertex 1 {m}
  0, -12.9315688143396, 0,                !- X,Y,Z Vertex 2 {m}
  6.46578440716979, -12.9315688143396, 0, !- X,Y,Z Vertex 3 {m}
  6.46578440716979, -12.9315688143396, 2.4384; !- X,Y,Z Vertex 4 {m}

OS:Surface,
  {33eed865-c8f8-4a95-a9c3-565d33c5be28}, !- Handle
  Surface 6,                              !- Name
  RoofCeiling,                            !- Surface Type
  ,                                       !- Construction Name
  {0b6874e6-f821-4d96-8c3b-39c79e0adc58}, !- Space Name
  Surface,                                !- Outside Boundary Condition
  {1aab1ef8-6fba-4b4a-b49d-87386f4d6743}, !- Outside Boundary Condition Object
  NoSun,                                  !- Sun Exposure
  NoWind,                                 !- Wind Exposure
  ,                                       !- View Factor to Ground
  ,                                       !- Number of Vertices
  6.46578440716979, -12.9315688143396, 2.4384, !- X,Y,Z Vertex 1 {m}
  6.46578440716979, 0, 2.4384,            !- X,Y,Z Vertex 2 {m}
  0, 0, 2.4384,                           !- X,Y,Z Vertex 3 {m}
  0, -12.9315688143396, 2.4384;           !- X,Y,Z Vertex 4 {m}

OS:SpaceType,
  {cebd14e6-a1cc-4db0-996e-b26aa839ac27}, !- Handle
  Space Type 1,                           !- Name
  ,                                       !- Default Construction Set Name
  ,                                       !- Default Schedule Set Name
  ,                                       !- Group Rendering Name
  ,                                       !- Design Specification Outdoor Air Object Name
  ,                                       !- Standards Building Type
  living;                                 !- Standards Space Type

OS:ThermalZone,
  {d4e8dba8-f0fe-45d7-9141-b52207be0436}, !- Handle
  living zone|unit 2,                     !- Name
  ,                                       !- Multiplier
  ,                                       !- Ceiling Height {m}
  ,                                       !- Volume {m3}
  ,                                       !- Floor Area {m2}
  ,                                       !- Zone Inside Convection Algorithm
  ,                                       !- Zone Outside Convection Algorithm
  ,                                       !- Zone Conditioning Equipment List Name
  {4b3c7c71-1e62-4d20-b3c3-3d217aece0e9}, !- Zone Air Inlet Port List
  {386e1f51-3f59-455c-8e12-f33c9b251f00}, !- Zone Air Exhaust Port List
  {9f187169-ad2e-4ff0-89e4-5a7a7b03ff31}, !- Zone Air Node Name
  {e8d3d264-7cdc-4259-88f2-1b0d8b263b77}, !- Zone Return Air Node Name
  ,                                       !- Primary Daylighting Control Name
  ,                                       !- Fraction of Zone Controlled by Primary Daylighting Control
  ,                                       !- Secondary Daylighting Control Name
  ,                                       !- Fraction of Zone Controlled by Secondary Daylighting Control
  ,                                       !- Illuminance Map Name
  ,                                       !- Group Rendering Name
  ,                                       !- Thermostat Name
  No;                                     !- Use Ideal Air Loads

OS:Node,
  {25fe50ee-27e4-44ec-9ab7-43c2c0095667}, !- Handle
  Node 2,                                 !- Name
  {9f187169-ad2e-4ff0-89e4-5a7a7b03ff31}, !- Inlet Port
  ;                                       !- Outlet Port

OS:Connection,
  {9f187169-ad2e-4ff0-89e4-5a7a7b03ff31}, !- Handle
  {84d6a20e-6ae0-4d6b-9227-5c7bd447f98e}, !- Name
  {d4e8dba8-f0fe-45d7-9141-b52207be0436}, !- Source Object
  11,                                     !- Outlet Port
  {25fe50ee-27e4-44ec-9ab7-43c2c0095667}, !- Target Object
  2;                                      !- Inlet Port

OS:PortList,
  {4b3c7c71-1e62-4d20-b3c3-3d217aece0e9}, !- Handle
  {4418333c-14f8-49df-a714-216186c345c0}, !- Name
  {d4e8dba8-f0fe-45d7-9141-b52207be0436}, !- HVAC Component
  {010a8fe7-1710-45f5-a72a-81b27fe8b952}; !- Port 1

OS:PortList,
  {386e1f51-3f59-455c-8e12-f33c9b251f00}, !- Handle
  {f7d769a4-70f6-40fd-b78e-8fd5dea2c729}, !- Name
  {d4e8dba8-f0fe-45d7-9141-b52207be0436}; !- HVAC Component

OS:Sizing:Zone,
  {ae381190-57fd-4a74-8bce-54a6f6039d31}, !- Handle
  {d4e8dba8-f0fe-45d7-9141-b52207be0436}, !- Zone or ZoneList Name
  SupplyAirTemperature,                   !- Zone Cooling Design Supply Air Temperature Input Method
  14,                                     !- Zone Cooling Design Supply Air Temperature {C}
  11.11,                                  !- Zone Cooling Design Supply Air Temperature Difference {deltaC}
  SupplyAirTemperature,                   !- Zone Heating Design Supply Air Temperature Input Method
  40,                                     !- Zone Heating Design Supply Air Temperature {C}
  11.11,                                  !- Zone Heating Design Supply Air Temperature Difference {deltaC}
  0.0085,                                 !- Zone Cooling Design Supply Air Humidity Ratio {kg-H2O/kg-air}
  0.008,                                  !- Zone Heating Design Supply Air Humidity Ratio {kg-H2O/kg-air}
  ,                                       !- Zone Heating Sizing Factor
  ,                                       !- Zone Cooling Sizing Factor
  DesignDay,                              !- Cooling Design Air Flow Method
  ,                                       !- Cooling Design Air Flow Rate {m3/s}
  ,                                       !- Cooling Minimum Air Flow per Zone Floor Area {m3/s-m2}
  ,                                       !- Cooling Minimum Air Flow {m3/s}
  ,                                       !- Cooling Minimum Air Flow Fraction
  DesignDay,                              !- Heating Design Air Flow Method
  ,                                       !- Heating Design Air Flow Rate {m3/s}
  ,                                       !- Heating Maximum Air Flow per Zone Floor Area {m3/s-m2}
  ,                                       !- Heating Maximum Air Flow {m3/s}
  ,                                       !- Heating Maximum Air Flow Fraction
  ,                                       !- Design Zone Air Distribution Effectiveness in Cooling Mode
  ,                                       !- Design Zone Air Distribution Effectiveness in Heating Mode
  No,                                     !- Account for Dedicated Outdoor Air System
  NeutralSupplyAir,                       !- Dedicated Outdoor Air System Control Strategy
  autosize,                               !- Dedicated Outdoor Air Low Setpoint Temperature for Design {C}
  autosize;                               !- Dedicated Outdoor Air High Setpoint Temperature for Design {C}

OS:ZoneHVAC:EquipmentList,
  {5af6889f-a037-4ef1-8c74-fddf88a59b1c}, !- Handle
  Zone HVAC Equipment List 2,             !- Name
  {d4e8dba8-f0fe-45d7-9141-b52207be0436}, !- Thermal Zone
  {a870a498-375b-46e4-9c0b-643375bf2847}, !- Zone Equipment 1
  1,                                      !- Zone Equipment Cooling Sequence 1
  1;                                      !- Zone Equipment Heating or No-Load Sequence 1

OS:Space,
  {de312fe8-b414-49a4-b249-0ff1ea2581db}, !- Handle
  living space|unit 2|story 1,            !- Name
  {cebd14e6-a1cc-4db0-996e-b26aa839ac27}, !- Space Type Name
  ,                                       !- Default Construction Set Name
  ,                                       !- Default Schedule Set Name
  -0,                                     !- Direction of Relative North {deg}
  0,                                      !- X Origin {m}
  0,                                      !- Y Origin {m}
  0,                                      !- Z Origin {m}
  ,                                       !- Building Story Name
  {d4e8dba8-f0fe-45d7-9141-b52207be0436}, !- Thermal Zone Name
  ,                                       !- Part of Total Floor Area
  ,                                       !- Design Specification Outdoor Air Object Name
  {2c17bbf6-a259-4b8a-8d2e-42c566d944fc}; !- Building Unit Name

OS:Surface,
  {cd2bd646-0816-446e-b2e0-e7ad7f34d3e8}, !- Handle
  Surface 12,                             !- Name
  Wall,                                   !- Surface Type
  ,                                       !- Construction Name
  {de312fe8-b414-49a4-b249-0ff1ea2581db}, !- Space Name
  Surface,                                !- Outside Boundary Condition
  {d1acc2c5-0cb1-432b-bab1-2d6495310db1}, !- Outside Boundary Condition Object
  NoSun,                                  !- Sun Exposure
  NoWind,                                 !- Wind Exposure
  ,                                       !- View Factor to Ground
  ,                                       !- Number of Vertices
  6.46578440716979, 0, 2.4384,            !- X,Y,Z Vertex 1 {m}
  6.46578440716979, 0, 0,                 !- X,Y,Z Vertex 2 {m}
  6.46578440716979, -12.9315688143396, 0, !- X,Y,Z Vertex 3 {m}
  6.46578440716979, -12.9315688143396, 2.4384; !- X,Y,Z Vertex 4 {m}

OS:Surface,
  {3fac1c07-a893-46ef-8289-141d114eb2d3}, !- Handle
  Surface 13,                             !- Name
  RoofCeiling,                            !- Surface Type
  ,                                       !- Construction Name
  {de312fe8-b414-49a4-b249-0ff1ea2581db}, !- Space Name
  Surface,                                !- Outside Boundary Condition
  {ea7bc504-fb65-4941-a4af-97e28a5f1838}, !- Outside Boundary Condition Object
  NoSun,                                  !- Sun Exposure
  NoWind,                                 !- Wind Exposure
  ,                                       !- View Factor to Ground
  ,                                       !- Number of Vertices
  12.9315688143396, -12.9315688143396, 2.4384, !- X,Y,Z Vertex 1 {m}
  12.9315688143396, 0, 2.4384,            !- X,Y,Z Vertex 2 {m}
  6.46578440716979, 0, 2.4384,            !- X,Y,Z Vertex 3 {m}
  6.46578440716979, -12.9315688143396, 2.4384; !- X,Y,Z Vertex 4 {m}

OS:Surface,
  {8af501ed-05b4-4e16-9ecb-e0cd71e89896}, !- Handle
  Surface 14,                             !- Name
  Floor,                                  !- Surface Type
  ,                                       !- Construction Name
  {de312fe8-b414-49a4-b249-0ff1ea2581db}, !- Space Name
  Foundation,                             !- Outside Boundary Condition
  ,                                       !- Outside Boundary Condition Object
  NoSun,                                  !- Sun Exposure
  NoWind,                                 !- Wind Exposure
  ,                                       !- View Factor to Ground
  ,                                       !- Number of Vertices
  6.46578440716979, -12.9315688143396, 0, !- X,Y,Z Vertex 1 {m}
  6.46578440716979, 0, 0,                 !- X,Y,Z Vertex 2 {m}
  12.9315688143396, 0, 0,                 !- X,Y,Z Vertex 3 {m}
  12.9315688143396, -12.9315688143396, 0; !- X,Y,Z Vertex 4 {m}

OS:Surface,
  {f0e9494e-728c-4844-8315-69b4af2b5711}, !- Handle
  Surface 15,                             !- Name
  Wall,                                   !- Surface Type
  ,                                       !- Construction Name
  {de312fe8-b414-49a4-b249-0ff1ea2581db}, !- Space Name
  Surface,                                !- Outside Boundary Condition
  {a1322fda-4cd2-45db-a893-a6b23e8ede45}, !- Outside Boundary Condition Object
  NoSun,                                  !- Sun Exposure
  NoWind,                                 !- Wind Exposure
  ,                                       !- View Factor to Ground
  ,                                       !- Number of Vertices
  12.9315688143396, -12.9315688143396, 2.4384, !- X,Y,Z Vertex 1 {m}
  12.9315688143396, -12.9315688143396, 0, !- X,Y,Z Vertex 2 {m}
  12.9315688143396, 0, 0,                 !- X,Y,Z Vertex 3 {m}
  12.9315688143396, 0, 2.4384;            !- X,Y,Z Vertex 4 {m}

OS:Surface,
  {a0f71fce-7d54-4ca7-85f3-cc0b50a97223}, !- Handle
  Surface 16,                             !- Name
  Wall,                                   !- Surface Type
  ,                                       !- Construction Name
  {de312fe8-b414-49a4-b249-0ff1ea2581db}, !- Space Name
  Outdoors,                               !- Outside Boundary Condition
  ,                                       !- Outside Boundary Condition Object
  SunExposed,                             !- Sun Exposure
  WindExposed,                            !- Wind Exposure
  ,                                       !- View Factor to Ground
  ,                                       !- Number of Vertices
  6.46578440716979, -12.9315688143396, 2.4384, !- X,Y,Z Vertex 1 {m}
  6.46578440716979, -12.9315688143396, 0, !- X,Y,Z Vertex 2 {m}
  12.9315688143396, -12.9315688143396, 0, !- X,Y,Z Vertex 3 {m}
  12.9315688143396, -12.9315688143396, 2.4384; !- X,Y,Z Vertex 4 {m}

OS:Surface,
  {87c1f7b1-42fe-4a79-b366-89d4adb0481c}, !- Handle
  Surface 17,                             !- Name
  Wall,                                   !- Surface Type
  ,                                       !- Construction Name
  {de312fe8-b414-49a4-b249-0ff1ea2581db}, !- Space Name
  Outdoors,                               !- Outside Boundary Condition
  ,                                       !- Outside Boundary Condition Object
  SunExposed,                             !- Sun Exposure
  WindExposed,                            !- Wind Exposure
  ,                                       !- View Factor to Ground
  ,                                       !- Number of Vertices
  12.9315688143396, 0, 2.4384,            !- X,Y,Z Vertex 1 {m}
  12.9315688143396, 0, 0,                 !- X,Y,Z Vertex 2 {m}
  6.46578440716979, 0, 0,                 !- X,Y,Z Vertex 3 {m}
  6.46578440716979, 0, 2.4384;            !- X,Y,Z Vertex 4 {m}

OS:ThermalZone,
  {6ba7e966-394e-4a59-8c5c-c9ec923636f0}, !- Handle
  living zone|unit 3,                     !- Name
  ,                                       !- Multiplier
  ,                                       !- Ceiling Height {m}
  ,                                       !- Volume {m3}
  ,                                       !- Floor Area {m2}
  ,                                       !- Zone Inside Convection Algorithm
  ,                                       !- Zone Outside Convection Algorithm
  ,                                       !- Zone Conditioning Equipment List Name
  {e62dcba1-0396-467a-82e3-f2296961185d}, !- Zone Air Inlet Port List
  {1e2a2c28-2ce4-4e33-bbf0-8097b0b58743}, !- Zone Air Exhaust Port List
  {616fade5-1d65-49a5-aa8b-93de2718a371}, !- Zone Air Node Name
  {90efe3d8-e91a-4e52-8942-5643b716cc05}, !- Zone Return Air Node Name
  ,                                       !- Primary Daylighting Control Name