!- NOTE: Auto-generated from /test/osw_files/SFA_4units_1story_SL_UA_3Beds_2Baths_Denver_CentralAC_NoSetpoints.osw

OS:Version,
  {37db1f7f-12ae-4538-afa6-8e83581c5147}, !- Handle
  2.6.2;                                  !- Version Identifier

OS:Building,
  {a58a096b-ddf4-49e9-873d-4eb00222d554}, !- Handle
  Building 1,                             !- Name
  ,                                       !- Building Sector Type
  0,                                      !- North Axis {deg}
  ,                                       !- Nominal Floor to Floor Height {m}
  ,                                       !- Space Type Name
  ,                                       !- Default Construction Set Name
  ,                                       !- Default Schedule Set Name
  1,                                      !- Standards Number of Stories
  1,                                      !- Standards Number of Above Ground Stories
  singlefamilyattached,                   !- Standards Building Type
  4;                                      !- Standards Number of Living Units

OS:Facility,
  {487a2565-6353-422f-8a7d-9406d4473968}; !- Handle

OS:Site,
  {892b7ab2-6b36-49a5-b1f9-ea5fd66a517d}, !- Handle
  Denver Intl Ap_CO_USA,                  !- Name
  39.83,                                  !- Latitude {deg}
  -104.65,                                !- Longitude {deg}
  -7,                                     !- Time Zone {hr}
  1650,                                   !- Elevation {m}
  ;                                       !- Terrain

OS:SimulationControl,
  {7ee94119-cfbf-4758-9862-cb7861ab8887}, !- Handle
  ,                                       !- Do Zone Sizing Calculation
  ,                                       !- Do System Sizing Calculation
  ,                                       !- Do Plant Sizing Calculation
  No;                                     !- Run Simulation for Sizing Periods

OS:Sizing:Parameters,
  {1e48f92f-bfaa-4add-b95e-c52df481b930}, !- Handle
  1.25,                                   !- Heating Sizing Factor
  1.15;                                   !- Cooling Sizing Factor

OS:Timestep,
  {292f4e14-6a83-4cbd-a38a-85e941981c73}, !- Handle
  6;                                      !- Number of Timesteps per Hour

OS:ShadowCalculation,
  {c1c46360-ec43-4c42-8d78-99ff65f91eda}, !- Handle
  20,                                     !- Calculation Frequency
  200;                                    !- Maximum Figures in Shadow Overlap Calculations

OS:HeatBalanceAlgorithm,
  {598c5e4c-fffd-416c-b86d-8b2e182e1728}, !- Handle
  ConductionTransferFunction,             !- Algorithm
  200;                                    !- Surface Temperature Upper Limit {C}

OS:RunPeriod,
  {b495074a-2998-4ea2-a4b2-f86b9476306f}, !- Handle
  Run Period 1,                           !- Name
  1,                                      !- Begin Month
  1,                                      !- Begin Day of Month
  12,                                     !- End Month
  31,                                     !- End Day of Month
  ,                                       !- Use Weather File Holidays and Special Days
  ,                                       !- Use Weather File Daylight Saving Period
  ,                                       !- Apply Weekend Holiday Rule
  ,                                       !- Use Weather File Rain Indicators
  ,                                       !- Use Weather File Snow Indicators
  ;                                       !- Number of Times Runperiod to be Repeated

OS:LifeCycleCost:Parameters,
  {cce25fcc-9fdf-4b56-b01d-79667f695701}, !- Handle
  ,                                       !- Analysis Type
  ,                                       !- Discounting Convention
  ,                                       !- Inflation Approach
  ,                                       !- Real Discount Rate
  ,                                       !- Nominal Discount Rate
  ,                                       !- Inflation
  ,                                       !- Base Date Month
  ,                                       !- Base Date Year
  ,                                       !- Service Date Month
  ,                                       !- Service Date Year
  ;                                       !- Length of Study Period in Years

OS:ThermalZone,
  {2424d62b-0716-4d40-b08f-13f849f74eb5}, !- Handle
  living zone,                            !- Name
  ,                                       !- Multiplier
  ,                                       !- Ceiling Height {m}
  ,                                       !- Volume {m3}
  ,                                       !- Floor Area {m2}
  ,                                       !- Zone Inside Convection Algorithm
  ,                                       !- Zone Outside Convection Algorithm
  ,                                       !- Zone Conditioning Equipment List Name
  {14f8c943-6117-4403-add6-ef4ce6600b11}, !- Zone Air Inlet Port List
  {3671e420-4ef6-4265-ad9a-2cc56e7e99ce}, !- Zone Air Exhaust Port List
  {905befeb-9282-405b-b5dd-856cc477c63d}, !- Zone Air Node Name
  {07166011-0568-4126-8af7-d04229ca055f}, !- Zone Return Air Port List
  ,                                       !- Primary Daylighting Control Name
  ,                                       !- Fraction of Zone Controlled by Primary Daylighting Control
  ,                                       !- Secondary Daylighting Control Name
  ,                                       !- Fraction of Zone Controlled by Secondary Daylighting Control
  ,                                       !- Illuminance Map Name
  ,                                       !- Group Rendering Name
  ,                                       !- Thermostat Name
  No;                                     !- Use Ideal Air Loads

OS:Node,
  {8f0ebe0d-c925-48e8-b4ed-5c0a81ada2fb}, !- Handle
  Node 1,                                 !- Name
  {905befeb-9282-405b-b5dd-856cc477c63d}, !- Inlet Port
  ;                                       !- Outlet Port

OS:Connection,
  {905befeb-9282-405b-b5dd-856cc477c63d}, !- Handle
  {2117c2cf-2e1b-40e8-9d08-5cf957a97e0f}, !- Name
  {2424d62b-0716-4d40-b08f-13f849f74eb5}, !- Source Object
  11,                                     !- Outlet Port
  {8f0ebe0d-c925-48e8-b4ed-5c0a81ada2fb}, !- Target Object
  2;                                      !- Inlet Port

OS:PortList,
  {14f8c943-6117-4403-add6-ef4ce6600b11}, !- Handle
  {f3f76bb0-a543-4cf4-9c4b-80211caf14c2}, !- Name
  {2424d62b-0716-4d40-b08f-13f849f74eb5}, !- HVAC Component
  {aa1df988-462b-4dc3-bd1c-0b03e9f073c5}; !- Port 1

OS:PortList,
  {3671e420-4ef6-4265-ad9a-2cc56e7e99ce}, !- Handle
  {a768b595-9428-4703-aea0-115ba22a7d8c}, !- Name
  {2424d62b-0716-4d40-b08f-13f849f74eb5}; !- HVAC Component

OS:PortList,
  {07166011-0568-4126-8af7-d04229ca055f}, !- Handle
  {57850790-7742-4acf-bf1b-402f1f53f742}, !- Name
  {2424d62b-0716-4d40-b08f-13f849f74eb5}, !- HVAC Component
  {088277b8-87c3-4101-99ed-841cca0fade3}; !- Port 1

OS:Sizing:Zone,
  {6762fede-b293-4d45-9cfa-75bdf4da127c}, !- Handle
  {2424d62b-0716-4d40-b08f-13f849f74eb5}, !- Zone or ZoneList Name
  SupplyAirTemperature,                   !- Zone Cooling Design Supply Air Temperature Input Method
  14,                                     !- Zone Cooling Design Supply Air Temperature {C}
  11.11,                                  !- Zone Cooling Design Supply Air Temperature Difference {deltaC}
  SupplyAirTemperature,                   !- Zone Heating Design Supply Air Temperature Input Method
  40,                                     !- Zone Heating Design Supply Air Temperature {C}
  11.11,                                  !- Zone Heating Design Supply Air Temperature Difference {deltaC}
  0.0085,                                 !- Zone Cooling Design Supply Air Humidity Ratio {kg-H2O/kg-air}
  0.008,                                  !- Zone Heating Design Supply Air Humidity Ratio {kg-H2O/kg-air}
  ,                                       !- Zone Heating Sizing Factor
  ,                                       !- Zone Cooling Sizing Factor
  DesignDay,                              !- Cooling Design Air Flow Method
  ,                                       !- Cooling Design Air Flow Rate {m3/s}
  ,                                       !- Cooling Minimum Air Flow per Zone Floor Area {m3/s-m2}
  ,                                       !- Cooling Minimum Air Flow {m3/s}
  ,                                       !- Cooling Minimum Air Flow Fraction
  DesignDay,                              !- Heating Design Air Flow Method
  ,                                       !- Heating Design Air Flow Rate {m3/s}
  ,                                       !- Heating Maximum Air Flow per Zone Floor Area {m3/s-m2}
  ,                                       !- Heating Maximum Air Flow {m3/s}
  ,                                       !- Heating Maximum Air Flow Fraction
  ,                                       !- Design Zone Air Distribution Effectiveness in Cooling Mode
  ,                                       !- Design Zone Air Distribution Effectiveness in Heating Mode
  No,                                     !- Account for Dedicated Outdoor Air System
  NeutralSupplyAir,                       !- Dedicated Outdoor Air System Control Strategy
  autosize,                               !- Dedicated Outdoor Air Low Setpoint Temperature for Design {C}
  autosize;                               !- Dedicated Outdoor Air High Setpoint Temperature for Design {C}

OS:ZoneHVAC:EquipmentList,
  {be42e42f-6a55-4896-9965-c977e9f779d3}, !- Handle
  Zone HVAC Equipment List 1,             !- Name
  {2424d62b-0716-4d40-b08f-13f849f74eb5}, !- Thermal Zone
  SequentialLoad,                         !- Load Distribution Scheme
  {f8c5b078-7df3-406b-850f-047a2aec0978}, !- Zone Equipment 1
  1,                                      !- Zone Equipment Cooling Sequence 1
  1;                                      !- Zone Equipment Heating or No-Load Sequence 1

OS:Space,
  {cb5f45ed-81bd-4eba-8947-a8ce23153aab}, !- Handle
  living space,                           !- Name
  {9c1953af-2933-433a-8161-d66261da1298}, !- Space Type Name
  ,                                       !- Default Construction Set Name
  ,                                       !- Default Schedule Set Name
  ,                                       !- Direction of Relative North {deg}
  ,                                       !- X Origin {m}
  ,                                       !- Y Origin {m}
  ,                                       !- Z Origin {m}
  ,                                       !- Building Story Name
  {2424d62b-0716-4d40-b08f-13f849f74eb5}, !- Thermal Zone Name
  ,                                       !- Part of Total Floor Area
  ,                                       !- Design Specification Outdoor Air Object Name
  {74245711-80eb-47f9-912e-457b99cfec2c}; !- Building Unit Name

OS:Surface,
  {64de1720-c470-42d9-bf7d-85ba4d888206}, !- Handle
  Surface 1,                              !- Name
  Floor,                                  !- Surface Type
  ,                                       !- Construction Name
  {cb5f45ed-81bd-4eba-8947-a8ce23153aab}, !- Space Name
  Foundation,                             !- Outside Boundary Condition
  ,                                       !- Outside Boundary Condition Object
  NoSun,                                  !- Sun Exposure
  NoWind,                                 !- Wind Exposure
  ,                                       !- View Factor to Ground
  ,                                       !- Number of Vertices
  0, -12.9315688143396, 0,                !- X,Y,Z Vertex 1 {m}
  0, 0, 0,                                !- X,Y,Z Vertex 2 {m}
  6.46578440716979, 0, 0,                 !- X,Y,Z Vertex 3 {m}
  6.46578440716979, -12.9315688143396, 0; !- X,Y,Z Vertex 4 {m}

OS:Surface,
  {f39ba679-f834-4f5b-85c9-c27eca08562f}, !- Handle
  Surface 2,                              !- Name
  Wall,                                   !- Surface Type
  ,                                       !- Construction Name
  {cb5f45ed-81bd-4eba-8947-a8ce23153aab}, !- Space Name
  Outdoors,                               !- Outside Boundary Condition
  ,                                       !- Outside Boundary Condition Object
  SunExposed,                             !- Sun Exposure
  WindExposed,                            !- Wind Exposure
  ,                                       !- View Factor to Ground
  ,                                       !- Number of Vertices
  0, 0, 2.4384,                           !- X,Y,Z Vertex 1 {m}
  0, 0, 0,                                !- X,Y,Z Vertex 2 {m}
  0, -12.9315688143396, 0,                !- X,Y,Z Vertex 3 {m}
  0, -12.9315688143396, 2.4384;           !- X,Y,Z Vertex 4 {m}

OS:Surface,
  {b761dfec-2c6b-4f86-8c58-d91dd113b74f}, !- Handle
  Surface 3,                              !- Name
  Wall,                                   !- Surface Type
  ,                                       !- Construction Name
  {cb5f45ed-81bd-4eba-8947-a8ce23153aab}, !- Space Name
  Outdoors,                               !- Outside Boundary Condition
  ,                                       !- Outside Boundary Condition Object
  SunExposed,                             !- Sun Exposure
  WindExposed,                            !- Wind Exposure
  ,                                       !- View Factor to Ground
  ,                                       !- Number of Vertices
  6.46578440716979, 0, 2.4384,            !- X,Y,Z Vertex 1 {m}
  6.46578440716979, 0, 0,                 !- X,Y,Z Vertex 2 {m}
  0, 0, 0,                                !- X,Y,Z Vertex 3 {m}
  0, 0, 2.4384;                           !- X,Y,Z Vertex 4 {m}

OS:Surface,
  {0eb44ce4-a329-4c3a-a984-6865dce45957}, !- Handle
  Surface 4,                              !- Name
  Wall,                                   !- Surface Type
  ,                                       !- Construction Name
  {cb5f45ed-81bd-4eba-8947-a8ce23153aab}, !- Space Name
  Surface,                                !- Outside Boundary Condition
  {3ccb656e-da9f-4ab2-a01c-4d8c6d88fc49}, !- Outside Boundary Condition Object
  NoSun,                                  !- Sun Exposure
  NoWind,                                 !- Wind Exposure
  ,                                       !- View Factor to Ground
  ,                                       !- Number of Vertices
  6.46578440716979, -12.9315688143396, 2.4384, !- X,Y,Z Vertex 1 {m}
  6.46578440716979, -12.9315688143396, 0, !- X,Y,Z Vertex 2 {m}
  6.46578440716979, 0, 0,                 !- X,Y,Z Vertex 3 {m}
  6.46578440716979, 0, 2.4384;            !- X,Y,Z Vertex 4 {m}

OS:Surface,
  {a539ba4c-5f6d-46cb-b9a9-d45d364256dd}, !- Handle
  Surface 5,                              !- Name
  Wall,                                   !- Surface Type
  ,                                       !- Construction Name
  {cb5f45ed-81bd-4eba-8947-a8ce23153aab}, !- Space Name
  Outdoors,                               !- Outside Boundary Condition
  ,                                       !- Outside Boundary Condition Object
  SunExposed,                             !- Sun Exposure
  WindExposed,                            !- Wind Exposure
  ,                                       !- View Factor to Ground
  ,                                       !- Number of Vertices
  0, -12.9315688143396, 2.4384,           !- X,Y,Z Vertex 1 {m}
  0, -12.9315688143396, 0,                !- X,Y,Z Vertex 2 {m}
  6.46578440716979, -12.9315688143396, 0, !- X,Y,Z Vertex 3 {m}
  6.46578440716979, -12.9315688143396, 2.4384; !- X,Y,Z Vertex 4 {m}

OS:Surface,
  {8d9bc335-0eaf-4e24-8232-1b53c662dc3e}, !- Handle
  Surface 6,                              !- Name
  RoofCeiling,                            !- Surface Type
  ,                                       !- Construction Name
  {cb5f45ed-81bd-4eba-8947-a8ce23153aab}, !- Space Name
  Surface,                                !- Outside Boundary Condition
  {56c6b88f-54d4-452e-837b-e3e59d634898}, !- Outside Boundary Condition Object
  NoSun,                                  !- Sun Exposure
  NoWind,                                 !- Wind Exposure
  ,                                       !- View Factor to Ground
  ,                                       !- Number of Vertices
  6.46578440716979, -12.9315688143396, 2.4384, !- X,Y,Z Vertex 1 {m}
  6.46578440716979, 0, 2.4384,            !- X,Y,Z Vertex 2 {m}
  0, 0, 2.4384,                           !- X,Y,Z Vertex 3 {m}
  0, -12.9315688143396, 2.4384;           !- X,Y,Z Vertex 4 {m}

OS:SpaceType,
  {9c1953af-2933-433a-8161-d66261da1298}, !- Handle
  Space Type 1,                           !- Name
  ,                                       !- Default Construction Set Name
  ,                                       !- Default Schedule Set Name
  ,                                       !- Group Rendering Name
  ,                                       !- Design Specification Outdoor Air Object Name
  ,                                       !- Standards Building Type
  living;                                 !- Standards Space Type

OS:ThermalZone,
  {a3060586-a8d8-4241-acf8-a5125e729b8b}, !- Handle
  living zone|unit 2,                     !- Name
  ,                                       !- Multiplier
  ,                                       !- Ceiling Height {m}
  ,                                       !- Volume {m3}
  ,                                       !- Floor Area {m2}
  ,                                       !- Zone Inside Convection Algorithm
  ,                                       !- Zone Outside Convection Algorithm
  ,                                       !- Zone Conditioning Equipment List Name
  {51310956-8f21-45f8-9892-a6b705362e94}, !- Zone Air Inlet Port List
  {13662ec6-6ae9-4c94-a8a9-c8abd1ffa1ba}, !- Zone Air Exhaust Port List
  {852e7daa-01a5-4be0-9130-8c247f6626dc}, !- Zone Air Node Name
  {98bb02e0-948a-4533-82fb-e0c9907da94d}, !- Zone Return Air Port List
  ,                                       !- Primary Daylighting Control Name
  ,                                       !- Fraction of Zone Controlled by Primary Daylighting Control
  ,                                       !- Secondary Daylighting Control Name
  ,                                       !- Fraction of Zone Controlled by Secondary Daylighting Control
  ,                                       !- Illuminance Map Name
  ,                                       !- Group Rendering Name
  ,                                       !- Thermostat Name
  No;                                     !- Use Ideal Air Loads

OS:Node,
  {1b7cd785-a53b-4061-8c6f-e026526fea0f}, !- Handle
  Node 2,                                 !- Name
  {852e7daa-01a5-4be0-9130-8c247f6626dc}, !- Inlet Port
  ;                                       !- Outlet Port

OS:Connection,
  {852e7daa-01a5-4be0-9130-8c247f6626dc}, !- Handle
  {ff1ee7d5-5f0a-47c3-8d63-8c967d898b05}, !- Name
  {a3060586-a8d8-4241-acf8-a5125e729b8b}, !- Source Object
  11,                                     !- Outlet Port
  {1b7cd785-a53b-4061-8c6f-e026526fea0f}, !- Target Object
  2;                                      !- Inlet Port

OS:PortList,
  {51310956-8f21-45f8-9892-a6b705362e94}, !- Handle
  {d7ebed6a-8bb6-4355-a007-483e4bb927e3}, !- Name
  {a3060586-a8d8-4241-acf8-a5125e729b8b}, !- HVAC Component
  {42ebb013-d44d-4a8d-8005-011ed4a11518}; !- Port 1

OS:PortList,
  {13662ec6-6ae9-4c94-a8a9-c8abd1ffa1ba}, !- Handle
  {e73fd137-f806-4a37-be19-5419bf317220}, !- Name
  {a3060586-a8d8-4241-acf8-a5125e729b8b}; !- HVAC Component

OS:PortList,
  {98bb02e0-948a-4533-82fb-e0c9907da94d}, !- Handle
  {315f35a8-f085-4344-8e4e-29d355d9d409}, !- Name
  {a3060586-a8d8-4241-acf8-a5125e729b8b}, !- HVAC Component
  {9e3a68cb-c545-428f-8175-f440acecb722}; !- Port 1

OS:Sizing:Zone,
  {1fc31691-e290-41d4-ad70-ffe3d7094aad}, !- Handle
  {a3060586-a8d8-4241-acf8-a5125e729b8b}, !- Zone or ZoneList Name
  SupplyAirTemperature,                   !- Zone Cooling Design Supply Air Temperature Input Method
  14,                                     !- Zone Cooling Design Supply Air Temperature {C}
  11.11,                                  !- Zone Cooling Design Supply Air Temperature Difference {deltaC}
  SupplyAirTemperature,                   !- Zone Heating Design Supply Air Temperature Input Method
  40,                                     !- Zone Heating Design Supply Air Temperature {C}
  11.11,                                  !- Zone Heating Design Supply Air Temperature Difference {deltaC}
  0.0085,                                 !- Zone Cooling Design Supply Air Humidity Ratio {kg-H2O/kg-air}
  0.008,                                  !- Zone Heating Design Supply Air Humidity Ratio {kg-H2O/kg-air}
  ,                                       !- Zone Heating Sizing Factor
  ,                                       !- Zone Cooling Sizing Factor
  DesignDay,                              !- Cooling Design Air Flow Method
  ,                                       !- Cooling Design Air Flow Rate {m3/s}
  ,                                       !- Cooling Minimum Air Flow per Zone Floor Area {m3/s-m2}
  ,                                       !- Cooling Minimum Air Flow {m3/s}
  ,                                       !- Cooling Minimum Air Flow Fraction
  DesignDay,                              !- Heating Design Air Flow Method
  ,                                       !- Heating Design Air Flow Rate {m3/s}
  ,                                       !- Heating Maximum Air Flow per Zone Floor Area {m3/s-m2}
  ,                                       !- Heating Maximum Air Flow {m3/s}
  ,                                       !- Heating Maximum Air Flow Fraction
  ,                                       !- Design Zone Air Distribution Effectiveness in Cooling Mode
  ,                                       !- Design Zone Air Distribution Effectiveness in Heating Mode
  No,                                     !- Account for Dedicated Outdoor Air System
  NeutralSupplyAir,                       !- Dedicated Outdoor Air System Control Strategy
  autosize,                               !- Dedicated Outdoor Air Low Setpoint Temperature for Design {C}
  autosize;                               !- Dedicated Outdoor Air High Setpoint Temperature for Design {C}

OS:ZoneHVAC:EquipmentList,
  {6d444802-88ba-46df-9db3-23d29458018e}, !- Handle
  Zone HVAC Equipment List 2,             !- Name
  {a3060586-a8d8-4241-acf8-a5125e729b8b}, !- Thermal Zone
  SequentialLoad,                         !- Load Distribution Scheme
  {5cd799ba-1da2-495e-933e-b60a9d41ec26}, !- Zone Equipment 1
  1,                                      !- Zone Equipment Cooling Sequence 1
  1;                                      !- Zone Equipment Heating or No-Load Sequence 1

OS:Space,
  {09386a3e-47d4-4a78-9f4d-a1915101e124}, !- Handle
  living space|unit 2|story 1,            !- Name
  {9c1953af-2933-433a-8161-d66261da1298}, !- Space Type Name
  ,                                       !- Default Construction Set Name
  ,                                       !- Default Schedule Set Name
  -0,                                     !- Direction of Relative North {deg}
  0,                                      !- X Origin {m}
  0,                                      !- Y Origin {m}
  0,                                      !- Z Origin {m}
  ,                                       !- Building Story Name
  {a3060586-a8d8-4241-acf8-a5125e729b8b}, !- Thermal Zone Name
  ,                                       !- Part of Total Floor Area
  ,                                       !- Design Specification Outdoor Air Object Name
  {48617c33-09ef-4035-ba49-e31ad7d9adf9}; !- Building Unit Name

OS:Surface,
  {3ccb656e-da9f-4ab2-a01c-4d8c6d88fc49}, !- Handle
  Surface 12,                             !- Name
  Wall,                                   !- Surface Type
  ,                                       !- Construction Name
  {09386a3e-47d4-4a78-9f4d-a1915101e124}, !- Space Name
  Surface,                                !- Outside Boundary Condition
  {0eb44ce4-a329-4c3a-a984-6865dce45957}, !- Outside Boundary Condition Object
  NoSun,                                  !- Sun Exposure
  NoWind,                                 !- Wind Exposure
  ,                                       !- View Factor to Ground
  ,                                       !- Number of Vertices
  6.46578440716979, 0, 2.4384,            !- X,Y,Z Vertex 1 {m}
  6.46578440716979, 0, 0,                 !- X,Y,Z Vertex 2 {m}
  6.46578440716979, -12.9315688143396, 0, !- X,Y,Z Vertex 3 {m}
  6.46578440716979, -12.9315688143396, 2.4384; !- X,Y,Z Vertex 4 {m}

OS:Surface,
  {ccdc1f4c-e2f6-4765-b111-05b1d60230a5}, !- Handle
  Surface 13,                             !- Name
  RoofCeiling,                            !- Surface Type
  ,                                       !- Construction Name
  {09386a3e-47d4-4a78-9f4d-a1915101e124}, !- Space Name
  Surface,                                !- Outside Boundary Condition
  {b54af140-a02f-4600-8c7b-968e108d9170}, !- Outside Boundary Condition Object
  NoSun,                                  !- Sun Exposure
  NoWind,                                 !- Wind Exposure
  ,                                       !- View Factor to Ground
  ,                                       !- Number of Vertices
  12.9315688143396, -12.9315688143396, 2.4384, !- X,Y,Z Vertex 1 {m}
  12.9315688143396, 0, 2.4384,            !- X,Y,Z Vertex 2 {m}
  6.46578440716979, 0, 2.4384,            !- X,Y,Z Vertex 3 {m}
  6.46578440716979, -12.9315688143396, 2.4384; !- X,Y,Z Vertex 4 {m}

OS:Surface,
  {929ef838-f0be-460c-a3a0-9f278e5cae5c}, !- Handle
  Surface 14,                             !- Name
  Wall,                                   !- Surface Type
  ,                                       !- Construction Name
  {09386a3e-47d4-4a78-9f4d-a1915101e124}, !- Space Name
  Surface,                                !- Outside Boundary Condition
  {e7d7f3b8-1d21-4d4b-9e0c-4ca6a3fff1e1}, !- Outside Boundary Condition Object
  NoSun,                                  !- Sun Exposure
  NoWind,                                 !- Wind Exposure
  ,                                       !- View Factor to Ground
  ,                                       !- Number of Vertices
  12.9315688143396, -12.9315688143396, 2.4384, !- X,Y,Z Vertex 1 {m}
  12.9315688143396, -12.9315688143396, 0, !- X,Y,Z Vertex 2 {m}
  12.9315688143396, 0, 0,                 !- X,Y,Z Vertex 3 {m}
  12.9315688143396, 0, 2.4384;            !- X,Y,Z Vertex 4 {m}

OS:Surface,
  {2a7be4d1-a214-4510-8ca4-6f4e42cbca15}, !- Handle
  Surface 15,                             !- Name
  Floor,                                  !- Surface Type
  ,                                       !- Construction Name
  {09386a3e-47d4-4a78-9f4d-a1915101e124}, !- Space Name
  Foundation,                             !- Outside Boundary Condition
  ,                                       !- Outside Boundary Condition Object
  NoSun,                                  !- Sun Exposure
  NoWind,                                 !- Wind Exposure
  ,                                       !- View Factor to Ground
  ,                                       !- Number of Vertices
  6.46578440716979, -12.9315688143396, 0, !- X,Y,Z Vertex 1 {m}
  6.46578440716979, 0, 0,                 !- X,Y,Z Vertex 2 {m}
  12.9315688143396, 0, 0,                 !- X,Y,Z Vertex 3 {m}
  12.9315688143396, -12.9315688143396, 0; !- X,Y,Z Vertex 4 {m}

OS:Surface,
  {eb834abc-e13c-456e-8bb4-782ab9eaabe0}, !- Handle
  Surface 16,                             !- Name
  Wall,                                   !- Surface Type
  ,                                       !- Construction Name
  {09386a3e-47d4-4a78-9f4d-a1915101e124}, !- Space Name
  Outdoors,                               !- Outside Boundary Condition
  ,                                       !- Outside Boundary Condition Object
  SunExposed,                             !- Sun Exposure
  WindExposed,                            !- Wind Exposure
  ,                                       !- View Factor to Ground
  ,                                       !- Number of Vertices
  12.9315688143396, 0, 2.4384,            !- X,Y,Z Vertex 1 {m}
  12.9315688143396, 0, 0,                 !- X,Y,Z Vertex 2 {m}
  6.46578440716979, 0, 0,                 !- X,Y,Z Vertex 3 {m}
  6.46578440716979, 0, 2.4384;            !- X,Y,Z Vertex 4 {m}

OS:Surface,
  {94a77a5b-705d-4904-94e0-8e1e784262a7}, !- Handle
  Surface 17,                             !- Name
  Wall,                                   !- Surface Type
  ,                                       !- Construction Name
  {09386a3e-47d4-4a78-9f4d-a1915101e124}, !- Space Name
  Outdoors,                               !- Outside Boundary Condition
  ,                                       !- Outside Boundary Condition Object
  SunExposed,                             !- Sun Exposure
  WindExposed,                            !- Wind Exposure
  ,                                       !- View Factor to Ground
  ,                                       !- Number of Vertices
  6.46578440716979, -12.9315688143396, 2.4384, !- X,Y,Z Vertex 1 {m}
  6.46578440716979, -12.9315688143396, 0, !- X,Y,Z Vertex 2 {m}
  12.9315688143396, -12.9315688143396, 0, !- X,Y,Z Vertex 3 {m}
  12.9315688143396, -12.9315688143396, 2.4384; !- X,Y,Z Vertex 4 {m}

OS:ThermalZone,
  {71a7bb6d-fabb-4248-9ed7-1adc1a2e3239}, !- Handle
  living zone|unit 3,                     !- Name
  ,                                       !- Multiplier
  ,                                       !- Ceiling Height {m}
  ,                                       !- Volume {m3}
  ,                                       !- Floor Area {m2}