!- NOTE: Auto-generated from /test/osw_files/SFA_4units_1story_SL_UA_3Beds_2Baths_Denver_CentralAC_NoSetpoints.osw

OS:Version,
  {6690164c-ccdb-4be4-8e73-b7c5e52b2f02}, !- Handle
  2.6.1;                                  !- Version Identifier

OS:Building,
  {a73da6cb-4dfb-47e9-a509-dec2726e60e7}, !- Handle
  Building 1,                             !- Name
  ,                                       !- Building Sector Type
  0,                                      !- North Axis {deg}
  ,                                       !- Nominal Floor to Floor Height {m}
  ,                                       !- Space Type Name
  ,                                       !- Default Construction Set Name
  ,                                       !- Default Schedule Set Name
  1,                                      !- Standards Number of Stories
  1,                                      !- Standards Number of Above Ground Stories
  singlefamilyttached,                    !- Standards Building Type
  4;                                      !- Standards Number of Living Units

OS:Facility,
  {9e82be9c-cf95-47c9-81ac-4b1f02e21d3c}; !- Handle

OS:Site,
  {5c1916fc-cd5d-4b06-8330-a9cea2b6697e}, !- Handle
  Denver Intl Ap_CO_USA,                  !- Name
  39.83,                                  !- Latitude {deg}
  -104.65,                                !- Longitude {deg}
  -7,                                     !- Time Zone {hr}
  1650,                                   !- Elevation {m}
  ;                                       !- Terrain

OS:SimulationControl,
  {c1bbc66c-c155-407c-bd77-8f48e06d71e6}, !- Handle
  ,                                       !- Do Zone Sizing Calculation
  ,                                       !- Do System Sizing Calculation
  ,                                       !- Do Plant Sizing Calculation
  No;                                     !- Run Simulation for Sizing Periods

OS:Sizing:Parameters,
  {9ce7a6c0-649b-46cb-a781-f5f13a0b2878}, !- Handle
  1.25,                                   !- Heating Sizing Factor
  1.15;                                   !- Cooling Sizing Factor

OS:Timestep,
  {ad2c7797-21f6-4fb8-89db-27f8c0f6e5bb}, !- Handle
  6;                                      !- Number of Timesteps per Hour

OS:ShadowCalculation,
  {615a1fe4-347c-4162-b72b-6d8d16e3e725}, !- Handle
  20,                                     !- Calculation Frequency
  200;                                    !- Maximum Figures in Shadow Overlap Calculations

OS:HeatBalanceAlgorithm,
  {08a7691d-d2b2-4d13-ad3a-74c0c9c266f9}, !- Handle
  ConductionTransferFunction,             !- Algorithm
  200;                                    !- Surface Temperature Upper Limit {C}

OS:RunPeriod,
  {122d47dc-cf6f-4eb9-a84a-407fba5aa093}, !- Handle
  Run Period 1,                           !- Name
  1,                                      !- Begin Month
  1,                                      !- Begin Day of Month
  12,                                     !- End Month
  31,                                     !- End Day of Month
  ,                                       !- Use Weather File Holidays and Special Days
  ,                                       !- Use Weather File Daylight Saving Period
  ,                                       !- Apply Weekend Holiday Rule
  ,                                       !- Use Weather File Rain Indicators
  ,                                       !- Use Weather File Snow Indicators
  ;                                       !- Number of Times Runperiod to be Repeated

OS:LifeCycleCost:Parameters,
  {9ae95f4c-ac56-4d62-97a9-27101180ff18}, !- Handle
  ,                                       !- Analysis Type
  ,                                       !- Discounting Convention
  ,                                       !- Inflation Approach
  ,                                       !- Real Discount Rate
  ,                                       !- Nominal Discount Rate
  ,                                       !- Inflation
  ,                                       !- Base Date Month
  ,                                       !- Base Date Year
  ,                                       !- Service Date Month
  ,                                       !- Service Date Year
  ;                                       !- Length of Study Period in Years

OS:ThermalZone,
  {a138dc85-3043-4afd-a319-94e5177e1655}, !- Handle
  living zone,                            !- Name
  ,                                       !- Multiplier
  ,                                       !- Ceiling Height {m}
  ,                                       !- Volume {m3}
  ,                                       !- Floor Area {m2}
  ,                                       !- Zone Inside Convection Algorithm
  ,                                       !- Zone Outside Convection Algorithm
  ,                                       !- Zone Conditioning Equipment List Name
  {3c32bbbc-c4b6-4546-b3d6-748f979aa659}, !- Zone Air Inlet Port List
  {32c0a1a5-a973-499b-9caa-46041a79fc32}, !- Zone Air Exhaust Port List
  {36e482f6-7771-483b-8413-cdc233afa207}, !- Zone Air Node Name
  {1db7a2b2-bc95-469d-9641-2a91f5b9deb3}, !- Zone Return Air Port List
  ,                                       !- Primary Daylighting Control Name
  ,                                       !- Fraction of Zone Controlled by Primary Daylighting Control
  ,                                       !- Secondary Daylighting Control Name
  ,                                       !- Fraction of Zone Controlled by Secondary Daylighting Control
  ,                                       !- Illuminance Map Name
  ,                                       !- Group Rendering Name
  ,                                       !- Thermostat Name
  No;                                     !- Use Ideal Air Loads

OS:Node,
  {88278d74-679e-42fe-9918-0feb691c2404}, !- Handle
  Node 1,                                 !- Name
  {36e482f6-7771-483b-8413-cdc233afa207}, !- Inlet Port
  ;                                       !- Outlet Port

OS:Connection,
  {36e482f6-7771-483b-8413-cdc233afa207}, !- Handle
  {5ca456ac-b2e4-4e5f-b503-becc11adddb3}, !- Name
  {a138dc85-3043-4afd-a319-94e5177e1655}, !- Source Object
  11,                                     !- Outlet Port
  {88278d74-679e-42fe-9918-0feb691c2404}, !- Target Object
  2;                                      !- Inlet Port

OS:PortList,
  {3c32bbbc-c4b6-4546-b3d6-748f979aa659}, !- Handle
  {923605d3-325f-4577-acc1-5db1071aa9ad}, !- Name
  {a138dc85-3043-4afd-a319-94e5177e1655}, !- HVAC Component
  {b4b28dbc-3d52-4719-97c9-e8f2f23f9e1d}; !- Port 1

OS:PortList,
  {32c0a1a5-a973-499b-9caa-46041a79fc32}, !- Handle
  {2427f8cb-e977-41a0-b1f8-4fe2d41b45ef}, !- Name
  {a138dc85-3043-4afd-a319-94e5177e1655}; !- HVAC Component

OS:PortList,
  {1db7a2b2-bc95-469d-9641-2a91f5b9deb3}, !- Handle
  {4827d591-385d-4098-b388-c560f6af3281}, !- Name
  {a138dc85-3043-4afd-a319-94e5177e1655}, !- HVAC Component
  {b481374e-44bd-4dd4-bc7e-1d1e6ee5e64a}; !- Port 1

OS:Sizing:Zone,
  {f34321ce-c09b-4e9d-8712-e4f7c824cc70}, !- Handle
  {a138dc85-3043-4afd-a319-94e5177e1655}, !- Zone or ZoneList Name
  SupplyAirTemperature,                   !- Zone Cooling Design Supply Air Temperature Input Method
  14,                                     !- Zone Cooling Design Supply Air Temperature {C}
  11.11,                                  !- Zone Cooling Design Supply Air Temperature Difference {deltaC}
  SupplyAirTemperature,                   !- Zone Heating Design Supply Air Temperature Input Method
  40,                                     !- Zone Heating Design Supply Air Temperature {C}
  11.11,                                  !- Zone Heating Design Supply Air Temperature Difference {deltaC}
  0.0085,                                 !- Zone Cooling Design Supply Air Humidity Ratio {kg-H2O/kg-air}
  0.008,                                  !- Zone Heating Design Supply Air Humidity Ratio {kg-H2O/kg-air}
  ,                                       !- Zone Heating Sizing Factor
  ,                                       !- Zone Cooling Sizing Factor
  DesignDay,                              !- Cooling Design Air Flow Method
  ,                                       !- Cooling Design Air Flow Rate {m3/s}
  ,                                       !- Cooling Minimum Air Flow per Zone Floor Area {m3/s-m2}
  ,                                       !- Cooling Minimum Air Flow {m3/s}
  ,                                       !- Cooling Minimum Air Flow Fraction
  DesignDay,                              !- Heating Design Air Flow Method
  ,                                       !- Heating Design Air Flow Rate {m3/s}
  ,                                       !- Heating Maximum Air Flow per Zone Floor Area {m3/s-m2}
  ,                                       !- Heating Maximum Air Flow {m3/s}
  ,                                       !- Heating Maximum Air Flow Fraction
  ,                                       !- Design Zone Air Distribution Effectiveness in Cooling Mode
  ,                                       !- Design Zone Air Distribution Effectiveness in Heating Mode
  No,                                     !- Account for Dedicated Outdoor Air System
  NeutralSupplyAir,                       !- Dedicated Outdoor Air System Control Strategy
  autosize,                               !- Dedicated Outdoor Air Low Setpoint Temperature for Design {C}
  autosize;                               !- Dedicated Outdoor Air High Setpoint Temperature for Design {C}

OS:ZoneHVAC:EquipmentList,
  {62f8f6d2-b611-4214-8979-a1899f34b7f5}, !- Handle
  Zone HVAC Equipment List 1,             !- Name
  {a138dc85-3043-4afd-a319-94e5177e1655}, !- Thermal Zone
  {15db5799-7836-4824-90b7-6fc8b5534100}, !- Zone Equipment 1
  1,                                      !- Zone Equipment Cooling Sequence 1
  1;                                      !- Zone Equipment Heating or No-Load Sequence 1

OS:Space,
  {c02a6840-7880-45e8-b324-81df07c19782}, !- Handle
  living space,                           !- Name
  {3bd5d488-6bc3-4d87-b13f-56819463b1a2}, !- Space Type Name
  ,                                       !- Default Construction Set Name
  ,                                       !- Default Schedule Set Name
  ,                                       !- Direction of Relative North {deg}
  ,                                       !- X Origin {m}
  ,                                       !- Y Origin {m}
  ,                                       !- Z Origin {m}
  ,                                       !- Building Story Name
  {a138dc85-3043-4afd-a319-94e5177e1655}, !- Thermal Zone Name
  ,                                       !- Part of Total Floor Area
  ,                                       !- Design Specification Outdoor Air Object Name
  {f3ec21c2-f4c4-4c8d-9804-559bf1d880e5}; !- Building Unit Name

OS:Surface,
  {044076a1-a411-4adf-825f-732ffb488330}, !- Handle
  Surface 1,                              !- Name
  Floor,                                  !- Surface Type
  ,                                       !- Construction Name
  {c02a6840-7880-45e8-b324-81df07c19782}, !- Space Name
  Foundation,                             !- Outside Boundary Condition
  ,                                       !- Outside Boundary Condition Object
  NoSun,                                  !- Sun Exposure
  NoWind,                                 !- Wind Exposure
  ,                                       !- View Factor to Ground
  ,                                       !- Number of Vertices
  0, -12.9315688143396, 0,                !- X,Y,Z Vertex 1 {m}
  0, 0, 0,                                !- X,Y,Z Vertex 2 {m}
  6.46578440716979, 0, 0,                 !- X,Y,Z Vertex 3 {m}
  6.46578440716979, -12.9315688143396, 0; !- X,Y,Z Vertex 4 {m}

OS:Surface,
  {836436fc-f7ad-4d45-a963-412b94cacfb0}, !- Handle
  Surface 2,                              !- Name
  Wall,                                   !- Surface Type
  ,                                       !- Construction Name
  {c02a6840-7880-45e8-b324-81df07c19782}, !- Space Name
  Outdoors,                               !- Outside Boundary Condition
  ,                                       !- Outside Boundary Condition Object
  SunExposed,                             !- Sun Exposure
  WindExposed,                            !- Wind Exposure
  ,                                       !- View Factor to Ground
  ,                                       !- Number of Vertices
  0, 0, 2.4384,                           !- X,Y,Z Vertex 1 {m}
  0, 0, 0,                                !- X,Y,Z Vertex 2 {m}
  0, -12.9315688143396, 0,                !- X,Y,Z Vertex 3 {m}
  0, -12.9315688143396, 2.4384;           !- X,Y,Z Vertex 4 {m}

OS:Surface,
  {97d1caeb-9383-4a7e-8721-f0aac766b4a5}, !- Handle
  Surface 3,                              !- Name
  Wall,                                   !- Surface Type
  ,                                       !- Construction Name
  {c02a6840-7880-45e8-b324-81df07c19782}, !- Space Name
  Outdoors,                               !- Outside Boundary Condition
  ,                                       !- Outside Boundary Condition Object
  SunExposed,                             !- Sun Exposure
  WindExposed,                            !- Wind Exposure
  ,                                       !- View Factor to Ground
  ,                                       !- Number of Vertices
  6.46578440716979, 0, 2.4384,            !- X,Y,Z Vertex 1 {m}
  6.46578440716979, 0, 0,                 !- X,Y,Z Vertex 2 {m}
  0, 0, 0,                                !- X,Y,Z Vertex 3 {m}
  0, 0, 2.4384;                           !- X,Y,Z Vertex 4 {m}

OS:Surface,
  {d6d456cf-68b9-4757-9c15-7aaf29dcb97f}, !- Handle
  Surface 4,                              !- Name
  Wall,                                   !- Surface Type
  ,                                       !- Construction Name
  {c02a6840-7880-45e8-b324-81df07c19782}, !- Space Name
  Surface,                                !- Outside Boundary Condition
  {b9970716-2942-425e-b942-f21128e418d8}, !- Outside Boundary Condition Object
  NoSun,                                  !- Sun Exposure
  NoWind,                                 !- Wind Exposure
  ,                                       !- View Factor to Ground
  ,                                       !- Number of Vertices
  6.46578440716979, -12.9315688143396, 2.4384, !- X,Y,Z Vertex 1 {m}
  6.46578440716979, -12.9315688143396, 0, !- X,Y,Z Vertex 2 {m}
  6.46578440716979, 0, 0,                 !- X,Y,Z Vertex 3 {m}
  6.46578440716979, 0, 2.4384;            !- X,Y,Z Vertex 4 {m}

OS:Surface,
  {355105bb-460f-44eb-a9d4-6ad0a2c810eb}, !- Handle
  Surface 5,                              !- Name
  Wall,                                   !- Surface Type
  ,                                       !- Construction Name
  {c02a6840-7880-45e8-b324-81df07c19782}, !- Space Name
  Outdoors,                               !- Outside Boundary Condition
  ,                                       !- Outside Boundary Condition Object
  SunExposed,                             !- Sun Exposure
  WindExposed,                            !- Wind Exposure
  ,                                       !- View Factor to Ground
  ,                                       !- Number of Vertices
  0, -12.9315688143396, 2.4384,           !- X,Y,Z Vertex 1 {m}
  0, -12.9315688143396, 0,                !- X,Y,Z Vertex 2 {m}
  6.46578440716979, -12.9315688143396, 0, !- X,Y,Z Vertex 3 {m}
  6.46578440716979, -12.9315688143396, 2.4384; !- X,Y,Z Vertex 4 {m}

OS:Surface,
  {59f04e02-6cea-43e2-9be5-5dfc0844037c}, !- Handle
  Surface 6,                              !- Name
  RoofCeiling,                            !- Surface Type
  ,                                       !- Construction Name
  {c02a6840-7880-45e8-b324-81df07c19782}, !- Space Name
  Surface,                                !- Outside Boundary Condition
  {b0c6957f-c3e8-4d03-a379-3f1c7e3dad5a}, !- Outside Boundary Condition Object
  NoSun,                                  !- Sun Exposure
  NoWind,                                 !- Wind Exposure
  ,                                       !- View Factor to Ground
  ,                                       !- Number of Vertices
  6.46578440716979, -12.9315688143396, 2.4384, !- X,Y,Z Vertex 1 {m}
  6.46578440716979, 0, 2.4384,            !- X,Y,Z Vertex 2 {m}
  0, 0, 2.4384,                           !- X,Y,Z Vertex 3 {m}
  0, -12.9315688143396, 2.4384;           !- X,Y,Z Vertex 4 {m}

OS:SpaceType,
  {3bd5d488-6bc3-4d87-b13f-56819463b1a2}, !- Handle
  Space Type 1,                           !- Name
  ,                                       !- Default Construction Set Name
  ,                                       !- Default Schedule Set Name
  ,                                       !- Group Rendering Name
  ,                                       !- Design Specification Outdoor Air Object Name
  ,                                       !- Standards Building Type
  living;                                 !- Standards Space Type

OS:ThermalZone,
  {21a6e55e-1bd4-4dcf-a428-52af3b55645a}, !- Handle
  living zone|unit 2,                     !- Name
  ,                                       !- Multiplier
  ,                                       !- Ceiling Height {m}
  ,                                       !- Volume {m3}
  ,                                       !- Floor Area {m2}
  ,                                       !- Zone Inside Convection Algorithm
  ,                                       !- Zone Outside Convection Algorithm
  ,                                       !- Zone Conditioning Equipment List Name
  {e8921343-ab57-4262-b183-2b0cb62a17e2}, !- Zone Air Inlet Port List
  {2542a8c8-5eee-418f-89e7-506338d4240b}, !- Zone Air Exhaust Port List
  {179d7764-7f7b-425e-98c4-3518b7cad7dc}, !- Zone Air Node Name
  {7fbc87c0-e5d9-458e-a459-ac1a2586d01e}, !- Zone Return Air Port List
  ,                                       !- Primary Daylighting Control Name
  ,                                       !- Fraction of Zone Controlled by Primary Daylighting Control
  ,                                       !- Secondary Daylighting Control Name
  ,                                       !- Fraction of Zone Controlled by Secondary Daylighting Control
  ,                                       !- Illuminance Map Name
  ,                                       !- Group Rendering Name
  ,                                       !- Thermostat Name
  No;                                     !- Use Ideal Air Loads

OS:Node,
  {2020df2c-33be-4a61-8b59-f796aff5049c}, !- Handle
  Node 2,                                 !- Name
  {179d7764-7f7b-425e-98c4-3518b7cad7dc}, !- Inlet Port
  ;                                       !- Outlet Port

OS:Connection,
  {179d7764-7f7b-425e-98c4-3518b7cad7dc}, !- Handle
  {dc7e578a-e619-4388-b2e1-e0315126276f}, !- Name
  {21a6e55e-1bd4-4dcf-a428-52af3b55645a}, !- Source Object
  11,                                     !- Outlet Port
  {2020df2c-33be-4a61-8b59-f796aff5049c}, !- Target Object
  2;                                      !- Inlet Port

OS:PortList,
  {e8921343-ab57-4262-b183-2b0cb62a17e2}, !- Handle
  {f62d2960-9986-44ee-a8d8-03004c0f18cd}, !- Name
  {21a6e55e-1bd4-4dcf-a428-52af3b55645a}, !- HVAC Component
  {fbd93d31-4596-4997-85ea-a3eeb0811c22}; !- Port 1

OS:PortList,
  {2542a8c8-5eee-418f-89e7-506338d4240b}, !- Handle
  {e6e2f994-8aba-4de3-84bf-a6dbc3b494dd}, !- Name
  {21a6e55e-1bd4-4dcf-a428-52af3b55645a}; !- HVAC Component

OS:PortList,
  {7fbc87c0-e5d9-458e-a459-ac1a2586d01e}, !- Handle
  {7e3c8308-6751-49ec-adf4-d519d821f39f}, !- Name
  {21a6e55e-1bd4-4dcf-a428-52af3b55645a}, !- HVAC Component
  {3deef289-1416-46a2-bc62-6a820d82ed02}; !- Port 1

OS:Sizing:Zone,
  {2c9dd3ed-0bc5-4ccd-a529-e3d168d6f191}, !- Handle
  {21a6e55e-1bd4-4dcf-a428-52af3b55645a}, !- Zone or ZoneList Name
  SupplyAirTemperature,                   !- Zone Cooling Design Supply Air Temperature Input Method
  14,                                     !- Zone Cooling Design Supply Air Temperature {C}
  11.11,                                  !- Zone Cooling Design Supply Air Temperature Difference {deltaC}
  SupplyAirTemperature,                   !- Zone Heating Design Supply Air Temperature Input Method
  40,                                     !- Zone Heating Design Supply Air Temperature {C}
  11.11,                                  !- Zone Heating Design Supply Air Temperature Difference {deltaC}
  0.0085,                                 !- Zone Cooling Design Supply Air Humidity Ratio {kg-H2O/kg-air}
  0.008,                                  !- Zone Heating Design Supply Air Humidity Ratio {kg-H2O/kg-air}
  ,                                       !- Zone Heating Sizing Factor
  ,                                       !- Zone Cooling Sizing Factor
  DesignDay,                              !- Cooling Design Air Flow Method
  ,                                       !- Cooling Design Air Flow Rate {m3/s}
  ,                                       !- Cooling Minimum Air Flow per Zone Floor Area {m3/s-m2}
  ,                                       !- Cooling Minimum Air Flow {m3/s}
  ,                                       !- Cooling Minimum Air Flow Fraction
  DesignDay,                              !- Heating Design Air Flow Method
  ,                                       !- Heating Design Air Flow Rate {m3/s}
  ,                                       !- Heating Maximum Air Flow per Zone Floor Area {m3/s-m2}
  ,                                       !- Heating Maximum Air Flow {m3/s}
  ,                                       !- Heating Maximum Air Flow Fraction
  ,                                       !- Design Zone Air Distribution Effectiveness in Cooling Mode
  ,                                       !- Design Zone Air Distribution Effectiveness in Heating Mode
  No,                                     !- Account for Dedicated Outdoor Air System
  NeutralSupplyAir,                       !- Dedicated Outdoor Air System Control Strategy
  autosize,                               !- Dedicated Outdoor Air Low Setpoint Temperature for Design {C}
  autosize;                               !- Dedicated Outdoor Air High Setpoint Temperature for Design {C}

OS:ZoneHVAC:EquipmentList,
  {78b9d5aa-239c-44e8-b912-2d95fd887886}, !- Handle
  Zone HVAC Equipment List 2,             !- Name
  {21a6e55e-1bd4-4dcf-a428-52af3b55645a}, !- Thermal Zone
  {9d9114d9-812e-4aa1-b393-2aae8162f0ad}, !- Zone Equipment 1
  1,                                      !- Zone Equipment Cooling Sequence 1
  1;                                      !- Zone Equipment Heating or No-Load Sequence 1

OS:Space,
  {2d5a9351-39fd-4d4d-8c12-762a37a644d0}, !- Handle
  living space|unit 2|story 1,            !- Name
  {3bd5d488-6bc3-4d87-b13f-56819463b1a2}, !- Space Type Name
  ,                                       !- Default Construction Set Name
  ,                                       !- Default Schedule Set Name
  -0,                                     !- Direction of Relative North {deg}
  0,                                      !- X Origin {m}
  0,                                      !- Y Origin {m}
  0,                                      !- Z Origin {m}
  ,                                       !- Building Story Name
  {21a6e55e-1bd4-4dcf-a428-52af3b55645a}, !- Thermal Zone Name
  ,                                       !- Part of Total Floor Area
  ,                                       !- Design Specification Outdoor Air Object Name
  {9c38abc1-9d14-42e6-b568-094c9100ead5}; !- Building Unit Name

OS:Surface,
  {b9970716-2942-425e-b942-f21128e418d8}, !- Handle
  Surface 12,                             !- Name
  Wall,                                   !- Surface Type
  ,                                       !- Construction Name
  {2d5a9351-39fd-4d4d-8c12-762a37a644d0}, !- Space Name
  Surface,                                !- Outside Boundary Condition
  {d6d456cf-68b9-4757-9c15-7aaf29dcb97f}, !- Outside Boundary Condition Object
  NoSun,                                  !- Sun Exposure
  NoWind,                                 !- Wind Exposure
  ,                                       !- View Factor to Ground
  ,                                       !- Number of Vertices
  6.46578440716979, 0, 2.4384,            !- X,Y,Z Vertex 1 {m}
  6.46578440716979, 0, 0,                 !- X,Y,Z Vertex 2 {m}
  6.46578440716979, -12.9315688143396, 0, !- X,Y,Z Vertex 3 {m}
  6.46578440716979, -12.9315688143396, 2.4384; !- X,Y,Z Vertex 4 {m}

OS:Surface,
  {c156e6c3-59ab-48fe-add7-09a9f9a8fc6c}, !- Handle
  Surface 13,                             !- Name
  Floor,                                  !- Surface Type
  ,                                       !- Construction Name
  {2d5a9351-39fd-4d4d-8c12-762a37a644d0}, !- Space Name
  Foundation,                             !- Outside Boundary Condition
  ,                                       !- Outside Boundary Condition Object
  NoSun,                                  !- Sun Exposure
  NoWind,                                 !- Wind Exposure
  ,                                       !- View Factor to Ground
  ,                                       !- Number of Vertices
  6.46578440716979, -12.9315688143396, 0, !- X,Y,Z Vertex 1 {m}
  6.46578440716979, 0, 0,                 !- X,Y,Z Vertex 2 {m}
  12.9315688143396, 0, 0,                 !- X,Y,Z Vertex 3 {m}
  12.9315688143396, -12.9315688143396, 0; !- X,Y,Z Vertex 4 {m}

OS:Surface,
  {ad2dc70d-fe70-4c8b-a97f-da27e6186e81}, !- Handle
  Surface 14,                             !- Name
  Wall,                                   !- Surface Type
  ,                                       !- Construction Name
  {2d5a9351-39fd-4d4d-8c12-762a37a644d0}, !- Space Name
  Outdoors,                               !- Outside Boundary Condition
  ,                                       !- Outside Boundary Condition Object
  SunExposed,                             !- Sun Exposure
  WindExposed,                            !- Wind Exposure
  ,                                       !- View Factor to Ground
  ,                                       !- Number of Vertices
  12.9315688143396, 0, 2.4384,            !- X,Y,Z Vertex 1 {m}
  12.9315688143396, 0, 0,                 !- X,Y,Z Vertex 2 {m}
  6.46578440716979, 0, 0,                 !- X,Y,Z Vertex 3 {m}
  6.46578440716979, 0, 2.4384;            !- X,Y,Z Vertex 4 {m}

OS:Surface,
  {dbb3dc43-9342-4683-963f-d5a1f3f8df58}, !- Handle
  Surface 15,                             !- Name
  Wall,                                   !- Surface Type
  ,                                       !- Construction Name
  {2d5a9351-39fd-4d4d-8c12-762a37a644d0}, !- Space Name
  Surface,                                !- Outside Boundary Condition
  {387fcfcf-308b-47b2-87de-376f49fd58eb}, !- Outside Boundary Condition Object
  NoSun,                                  !- Sun Exposure
  NoWind,                                 !- Wind Exposure
  ,                                       !- View Factor to Ground
  ,                                       !- Number of Vertices
  12.9315688143396, -12.9315688143396, 2.4384, !- X,Y,Z Vertex 1 {m}
  12.9315688143396, -12.9315688143396, 0, !- X,Y,Z Vertex 2 {m}
  12.9315688143396, 0, 0,                 !- X,Y,Z Vertex 3 {m}
  12.9315688143396, 0, 2.4384;            !- X,Y,Z Vertex 4 {m}

OS:Surface,
  {a92012cf-3a7d-44f9-bb44-c59feb95d9ec}, !- Handle
  Surface 16,                             !- Name
  RoofCeiling,                            !- Surface Type
  ,                                       !- Construction Name
  {2d5a9351-39fd-4d4d-8c12-762a37a644d0}, !- Space Name
  Surface,                                !- Outside Boundary Condition
  {a6a57b14-68a8-4fc9-abd6-58a0f9ed6f95}, !- Outside Boundary Condition Object
  NoSun,                                  !- Sun Exposure
  NoWind,                                 !- Wind Exposure
  ,                                       !- View Factor to Ground
  ,                                       !- Number of Vertices
  12.9315688143396, -12.9315688143396, 2.4384, !- X,Y,Z Vertex 1 {m}
  12.9315688143396, 0, 2.4384,            !- X,Y,Z Vertex 2 {m}
  6.46578440716979, 0, 2.4384,            !- X,Y,Z Vertex 3 {m}
  6.46578440716979, -12.9315688143396, 2.4384; !- X,Y,Z Vertex 4 {m}

OS:Surface,
  {9cfcda53-dcdb-4b38-ba62-860f6547e51f}, !- Handle
  Surface 17,                             !- Name
  Wall,                                   !- Surface Type
  ,                                       !- Construction Name
  {2d5a9351-39fd-4d4d-8c12-762a37a644d0}, !- Space Name
  Outdoors,                               !- Outside Boundary Condition
  ,                                       !- Outside Boundary Condition Object
  SunExposed,                             !- Sun Exposure
  WindExposed,                            !- Wind Exposure
  ,                                       !- View Factor to Ground
  ,                                       !- Number of Vertices
  6.46578440716979, -12.9315688143396, 2.4384, !- X,Y,Z Vertex 1 {m}
  6.46578440716979, -12.9315688143396, 0, !- X,Y,Z Vertex 2 {m}
  12.9315688143396, -12.9315688143396, 0, !- X,Y,Z Vertex 3 {m}
  12.9315688143396, -12.9315688143396, 2.4384; !- X,Y,Z Vertex 4 {m}

OS:ThermalZone,
  {ba6a2eb9-2077-4961-8246-b5e53c680d21}, !- Handle
  living zone|unit 3,                     !- Name
  ,                                       !- Multiplier
  ,                                       !- Ceiling Height {m}
  ,                                       !- Volume {m3}
  ,                                       !- Floor Area {m2}
  ,                                       !- Zone Inside Convection Algorithm
  ,                                       !- Zone Outside Convection Algorithm