!- NOTE: Auto-generated from /test/osw_files/SFA_4units_1story_SL_UA_3Beds_2Baths_Denver_CentralAC_NoSetpoints.osw

OS:Version,
  {3d3841ae-8092-4baa-9cc7-56279ebc2252}, !- Handle
  2.6.2;                                  !- Version Identifier

OS:Building,
  {a58e986e-b42c-4c0a-bdf6-3508541da6c0}, !- Handle
  Building 1,                             !- Name
  ,                                       !- Building Sector Type
  0,                                      !- North Axis {deg}
  ,                                       !- Nominal Floor to Floor Height {m}
  ,                                       !- Space Type Name
  ,                                       !- Default Construction Set Name
  ,                                       !- Default Schedule Set Name
  1,                                      !- Standards Number of Stories
  1,                                      !- Standards Number of Above Ground Stories
  singlefamilyattached,                   !- Standards Building Type
  4;                                      !- Standards Number of Living Units

OS:Facility,
  {b17c4e7c-587c-4cb6-b5b9-0a9bb195df19}; !- Handle

OS:Site,
  {4882c40a-ea62-4e5f-ba15-73e14466348f}, !- Handle
  Denver Intl Ap_CO_USA,                  !- Name
  39.83,                                  !- Latitude {deg}
  -104.65,                                !- Longitude {deg}
  -7,                                     !- Time Zone {hr}
  1650,                                   !- Elevation {m}
  ;                                       !- Terrain

OS:SimulationControl,
  {677e829f-4e4b-46ca-b673-f2b2b280d940}, !- Handle
  ,                                       !- Do Zone Sizing Calculation
  ,                                       !- Do System Sizing Calculation
  ,                                       !- Do Plant Sizing Calculation
  No;                                     !- Run Simulation for Sizing Periods

OS:Sizing:Parameters,
  {580b7564-f508-4dc6-986d-7d83f6ea1d74}, !- Handle
  1.25,                                   !- Heating Sizing Factor
  1.15;                                   !- Cooling Sizing Factor

OS:Timestep,
  {03e797ca-ee2b-4043-8e5f-e1af8fd2f39d}, !- Handle
  6;                                      !- Number of Timesteps per Hour

OS:ShadowCalculation,
  {ee36f219-94f2-4935-85f9-de00ec39281d}, !- Handle
  20,                                     !- Calculation Frequency
  200;                                    !- Maximum Figures in Shadow Overlap Calculations

OS:HeatBalanceAlgorithm,
  {1944bebf-ec0b-4c3d-a50f-b1dedf0beab1}, !- Handle
  ConductionTransferFunction,             !- Algorithm
  200;                                    !- Surface Temperature Upper Limit {C}

OS:RunPeriod,
  {80210c02-f1b1-4fa4-b953-1b7ce6fc1b60}, !- Handle
  Run Period 1,                           !- Name
  1,                                      !- Begin Month
  1,                                      !- Begin Day of Month
  12,                                     !- End Month
  31,                                     !- End Day of Month
  ,                                       !- Use Weather File Holidays and Special Days
  ,                                       !- Use Weather File Daylight Saving Period
  ,                                       !- Apply Weekend Holiday Rule
  ,                                       !- Use Weather File Rain Indicators
  ,                                       !- Use Weather File Snow Indicators
  ;                                       !- Number of Times Runperiod to be Repeated

OS:LifeCycleCost:Parameters,
  {0c8cd1d0-00cc-4a4e-bbfb-c9be74ee0b71}, !- Handle
  ,                                       !- Analysis Type
  ,                                       !- Discounting Convention
  ,                                       !- Inflation Approach
  ,                                       !- Real Discount Rate
  ,                                       !- Nominal Discount Rate
  ,                                       !- Inflation
  ,                                       !- Base Date Month
  ,                                       !- Base Date Year
  ,                                       !- Service Date Month
  ,                                       !- Service Date Year
  ;                                       !- Length of Study Period in Years

OS:ThermalZone,
  {bb170387-76bc-4586-9ca5-b5b6b1f8855e}, !- Handle
  living zone,                            !- Name
  ,                                       !- Multiplier
  ,                                       !- Ceiling Height {m}
  ,                                       !- Volume {m3}
  ,                                       !- Floor Area {m2}
  ,                                       !- Zone Inside Convection Algorithm
  ,                                       !- Zone Outside Convection Algorithm
  ,                                       !- Zone Conditioning Equipment List Name
  {dbca6a51-6374-4176-869d-8f66fdfb7562}, !- Zone Air Inlet Port List
  {dad74e7f-e3db-4306-a547-76557b57ad7a}, !- Zone Air Exhaust Port List
  {0708ecee-add2-4732-995b-1d4507771ac3}, !- Zone Air Node Name
  {f6e281db-a579-48d4-ae22-12ae70caa2df}, !- Zone Return Air Port List
  ,                                       !- Primary Daylighting Control Name
  ,                                       !- Fraction of Zone Controlled by Primary Daylighting Control
  ,                                       !- Secondary Daylighting Control Name
  ,                                       !- Fraction of Zone Controlled by Secondary Daylighting Control
  ,                                       !- Illuminance Map Name
  ,                                       !- Group Rendering Name
  ,                                       !- Thermostat Name
  No;                                     !- Use Ideal Air Loads

OS:Node,
  {0ff2c026-17ed-4073-9da8-b3e7fa4d0cb7}, !- Handle
  Node 1,                                 !- Name
  {0708ecee-add2-4732-995b-1d4507771ac3}, !- Inlet Port
  ;                                       !- Outlet Port

OS:Connection,
  {0708ecee-add2-4732-995b-1d4507771ac3}, !- Handle
  {dac57c81-43eb-462f-8310-a6ae606511dd}, !- Name
  {bb170387-76bc-4586-9ca5-b5b6b1f8855e}, !- Source Object
  11,                                     !- Outlet Port
  {0ff2c026-17ed-4073-9da8-b3e7fa4d0cb7}, !- Target Object
  2;                                      !- Inlet Port

OS:PortList,
  {dbca6a51-6374-4176-869d-8f66fdfb7562}, !- Handle
  {c9e03809-73d6-4504-84da-97834aba65a2}, !- Name
  {bb170387-76bc-4586-9ca5-b5b6b1f8855e}, !- HVAC Component
  {468d3d20-223d-4389-8db2-bf80bf0f3767}; !- Port 1

OS:PortList,
  {dad74e7f-e3db-4306-a547-76557b57ad7a}, !- Handle
  {0e8fb026-8474-457a-9a48-a606d1a4b8f6}, !- Name
  {bb170387-76bc-4586-9ca5-b5b6b1f8855e}; !- HVAC Component

OS:PortList,
  {f6e281db-a579-48d4-ae22-12ae70caa2df}, !- Handle
  {5ed58319-f895-47e9-88ec-47edb68ee4f2}, !- Name
  {bb170387-76bc-4586-9ca5-b5b6b1f8855e}, !- HVAC Component
  {de74b344-9c30-43de-abbc-fcb1e7aa8d24}; !- Port 1

OS:Sizing:Zone,
  {40fc306c-1150-4977-9d90-0a211cceff19}, !- Handle
  {bb170387-76bc-4586-9ca5-b5b6b1f8855e}, !- Zone or ZoneList Name
  SupplyAirTemperature,                   !- Zone Cooling Design Supply Air Temperature Input Method
  14,                                     !- Zone Cooling Design Supply Air Temperature {C}
  11.11,                                  !- Zone Cooling Design Supply Air Temperature Difference {deltaC}
  SupplyAirTemperature,                   !- Zone Heating Design Supply Air Temperature Input Method
  40,                                     !- Zone Heating Design Supply Air Temperature {C}
  11.11,                                  !- Zone Heating Design Supply Air Temperature Difference {deltaC}
  0.0085,                                 !- Zone Cooling Design Supply Air Humidity Ratio {kg-H2O/kg-air}
  0.008,                                  !- Zone Heating Design Supply Air Humidity Ratio {kg-H2O/kg-air}
  ,                                       !- Zone Heating Sizing Factor
  ,                                       !- Zone Cooling Sizing Factor
  DesignDay,                              !- Cooling Design Air Flow Method
  ,                                       !- Cooling Design Air Flow Rate {m3/s}
  ,                                       !- Cooling Minimum Air Flow per Zone Floor Area {m3/s-m2}
  ,                                       !- Cooling Minimum Air Flow {m3/s}
  ,                                       !- Cooling Minimum Air Flow Fraction
  DesignDay,                              !- Heating Design Air Flow Method
  ,                                       !- Heating Design Air Flow Rate {m3/s}
  ,                                       !- Heating Maximum Air Flow per Zone Floor Area {m3/s-m2}
  ,                                       !- Heating Maximum Air Flow {m3/s}
  ,                                       !- Heating Maximum Air Flow Fraction
  ,                                       !- Design Zone Air Distribution Effectiveness in Cooling Mode
  ,                                       !- Design Zone Air Distribution Effectiveness in Heating Mode
  No,                                     !- Account for Dedicated Outdoor Air System
  NeutralSupplyAir,                       !- Dedicated Outdoor Air System Control Strategy
  autosize,                               !- Dedicated Outdoor Air Low Setpoint Temperature for Design {C}
  autosize;                               !- Dedicated Outdoor Air High Setpoint Temperature for Design {C}

OS:ZoneHVAC:EquipmentList,
  {cda52510-5fe5-4fa7-886e-e0388b0bd52d}, !- Handle
  Zone HVAC Equipment List 1,             !- Name
  {bb170387-76bc-4586-9ca5-b5b6b1f8855e}, !- Thermal Zone
  SequentialLoad,                         !- Load Distribution Scheme
  {e5806b58-9530-453e-a415-9e0bdc2b1548}, !- Zone Equipment 1
  1,                                      !- Zone Equipment Cooling Sequence 1
  1;                                      !- Zone Equipment Heating or No-Load Sequence 1

OS:Space,
  {5faaf21b-7449-44e1-af98-255515b294eb}, !- Handle
  living space,                           !- Name
  {b362160c-5674-4666-848e-d5a9cff3fcdf}, !- Space Type Name
  ,                                       !- Default Construction Set Name
  ,                                       !- Default Schedule Set Name
  ,                                       !- Direction of Relative North {deg}
  ,                                       !- X Origin {m}
  ,                                       !- Y Origin {m}
  ,                                       !- Z Origin {m}
  ,                                       !- Building Story Name
  {bb170387-76bc-4586-9ca5-b5b6b1f8855e}, !- Thermal Zone Name
  ,                                       !- Part of Total Floor Area
  ,                                       !- Design Specification Outdoor Air Object Name
  {22a10489-29ae-4295-b67b-b65ce5b2f13f}; !- Building Unit Name

OS:Surface,
  {18db47a4-2f78-4220-b658-92645b11dd47}, !- Handle
  Surface 1,                              !- Name
  Floor,                                  !- Surface Type
  ,                                       !- Construction Name
  {5faaf21b-7449-44e1-af98-255515b294eb}, !- Space Name
  Foundation,                             !- Outside Boundary Condition
  ,                                       !- Outside Boundary Condition Object
  NoSun,                                  !- Sun Exposure
  NoWind,                                 !- Wind Exposure
  ,                                       !- View Factor to Ground
  ,                                       !- Number of Vertices
  0, -12.9315688143396, 0,                !- X,Y,Z Vertex 1 {m}
  0, 0, 0,                                !- X,Y,Z Vertex 2 {m}
  6.46578440716979, 0, 0,                 !- X,Y,Z Vertex 3 {m}
  6.46578440716979, -12.9315688143396, 0; !- X,Y,Z Vertex 4 {m}

OS:Surface,
  {27d1cb10-369a-45b3-b288-2a6e7ec81b65}, !- Handle
  Surface 2,                              !- Name
  Wall,                                   !- Surface Type
  ,                                       !- Construction Name
  {5faaf21b-7449-44e1-af98-255515b294eb}, !- Space Name
  Outdoors,                               !- Outside Boundary Condition
  ,                                       !- Outside Boundary Condition Object
  SunExposed,                             !- Sun Exposure
  WindExposed,                            !- Wind Exposure
  ,                                       !- View Factor to Ground
  ,                                       !- Number of Vertices
  0, 0, 2.4384,                           !- X,Y,Z Vertex 1 {m}
  0, 0, 0,                                !- X,Y,Z Vertex 2 {m}
  0, -12.9315688143396, 0,                !- X,Y,Z Vertex 3 {m}
  0, -12.9315688143396, 2.4384;           !- X,Y,Z Vertex 4 {m}

OS:Surface,
  {75f2f39e-2598-40a2-95aa-8eade48dad26}, !- Handle
  Surface 3,                              !- Name
  Wall,                                   !- Surface Type
  ,                                       !- Construction Name
  {5faaf21b-7449-44e1-af98-255515b294eb}, !- Space Name
  Outdoors,                               !- Outside Boundary Condition
  ,                                       !- Outside Boundary Condition Object
  SunExposed,                             !- Sun Exposure
  WindExposed,                            !- Wind Exposure
  ,                                       !- View Factor to Ground
  ,                                       !- Number of Vertices
  6.46578440716979, 0, 2.4384,            !- X,Y,Z Vertex 1 {m}
  6.46578440716979, 0, 0,                 !- X,Y,Z Vertex 2 {m}
  0, 0, 0,                                !- X,Y,Z Vertex 3 {m}
  0, 0, 2.4384;                           !- X,Y,Z Vertex 4 {m}

OS:Surface,
  {14ea3fbf-45d9-4736-b6a4-2622c261779c}, !- Handle
  Surface 4,                              !- Name
  Wall,                                   !- Surface Type
  ,                                       !- Construction Name
  {5faaf21b-7449-44e1-af98-255515b294eb}, !- Space Name
  Surface,                                !- Outside Boundary Condition
  {4845280a-4e9a-486a-b4f7-d0ff54751bfe}, !- Outside Boundary Condition Object
  NoSun,                                  !- Sun Exposure
  NoWind,                                 !- Wind Exposure
  ,                                       !- View Factor to Ground
  ,                                       !- Number of Vertices
  6.46578440716979, -12.9315688143396, 2.4384, !- X,Y,Z Vertex 1 {m}
  6.46578440716979, -12.9315688143396, 0, !- X,Y,Z Vertex 2 {m}
  6.46578440716979, 0, 0,                 !- X,Y,Z Vertex 3 {m}
  6.46578440716979, 0, 2.4384;            !- X,Y,Z Vertex 4 {m}

OS:Surface,
  {7a24b707-a0a3-4cfd-9ed6-3a1a454e756d}, !- Handle
  Surface 5,                              !- Name
  Wall,                                   !- Surface Type
  ,                                       !- Construction Name
  {5faaf21b-7449-44e1-af98-255515b294eb}, !- Space Name
  Outdoors,                               !- Outside Boundary Condition
  ,                                       !- Outside Boundary Condition Object
  SunExposed,                             !- Sun Exposure
  WindExposed,                            !- Wind Exposure
  ,                                       !- View Factor to Ground
  ,                                       !- Number of Vertices
  0, -12.9315688143396, 2.4384,           !- X,Y,Z Vertex 1 {m}
  0, -12.9315688143396, 0,                !- X,Y,Z Vertex 2 {m}
  6.46578440716979, -12.9315688143396, 0, !- X,Y,Z Vertex 3 {m}
  6.46578440716979, -12.9315688143396, 2.4384; !- X,Y,Z Vertex 4 {m}

OS:Surface,
  {b0553cc5-b702-43a9-8f61-3b126e5ce48d}, !- Handle
  Surface 6,                              !- Name
  RoofCeiling,                            !- Surface Type
  ,                                       !- Construction Name
  {5faaf21b-7449-44e1-af98-255515b294eb}, !- Space Name
  Surface,                                !- Outside Boundary Condition
  {1110e82e-71a3-40ee-a84a-94163b13af6a}, !- Outside Boundary Condition Object
  NoSun,                                  !- Sun Exposure
  NoWind,                                 !- Wind Exposure
  ,                                       !- View Factor to Ground
  ,                                       !- Number of Vertices
  6.46578440716979, -12.9315688143396, 2.4384, !- X,Y,Z Vertex 1 {m}
  6.46578440716979, 0, 2.4384,            !- X,Y,Z Vertex 2 {m}
  0, 0, 2.4384,                           !- X,Y,Z Vertex 3 {m}
  0, -12.9315688143396, 2.4384;           !- X,Y,Z Vertex 4 {m}

OS:SpaceType,
  {b362160c-5674-4666-848e-d5a9cff3fcdf}, !- Handle
  Space Type 1,                           !- Name
  ,                                       !- Default Construction Set Name
  ,                                       !- Default Schedule Set Name
  ,                                       !- Group Rendering Name
  ,                                       !- Design Specification Outdoor Air Object Name
  ,                                       !- Standards Building Type
  living;                                 !- Standards Space Type

OS:ThermalZone,
  {45726c96-6b86-48a3-8578-cef173a5ec39}, !- Handle
  living zone|unit 2,                     !- Name
  ,                                       !- Multiplier
  ,                                       !- Ceiling Height {m}
  ,                                       !- Volume {m3}
  ,                                       !- Floor Area {m2}
  ,                                       !- Zone Inside Convection Algorithm
  ,                                       !- Zone Outside Convection Algorithm
  ,                                       !- Zone Conditioning Equipment List Name
  {68ed211a-1e78-43e4-b214-50f2b17c694f}, !- Zone Air Inlet Port List
  {85d865b3-4cd3-458e-b50a-b2df2c69c4c4}, !- Zone Air Exhaust Port List
  {ca595b4b-9af6-4d67-96fe-6c06241d8095}, !- Zone Air Node Name
  {c54d3064-7c62-4c84-a754-a63c468f3b8c}, !- Zone Return Air Port List
  ,                                       !- Primary Daylighting Control Name
  ,                                       !- Fraction of Zone Controlled by Primary Daylighting Control
  ,                                       !- Secondary Daylighting Control Name
  ,                                       !- Fraction of Zone Controlled by Secondary Daylighting Control
  ,                                       !- Illuminance Map Name
  ,                                       !- Group Rendering Name
  ,                                       !- Thermostat Name
  No;                                     !- Use Ideal Air Loads

OS:Node,
  {d01fe1e3-7bf5-4905-8855-2f4f1cdd8bb2}, !- Handle
  Node 2,                                 !- Name
  {ca595b4b-9af6-4d67-96fe-6c06241d8095}, !- Inlet Port
  ;                                       !- Outlet Port

OS:Connection,
  {ca595b4b-9af6-4d67-96fe-6c06241d8095}, !- Handle
  {977d3910-c369-4945-8fba-c2dcbfc27df8}, !- Name
  {45726c96-6b86-48a3-8578-cef173a5ec39}, !- Source Object
  11,                                     !- Outlet Port
  {d01fe1e3-7bf5-4905-8855-2f4f1cdd8bb2}, !- Target Object
  2;                                      !- Inlet Port

OS:PortList,
  {68ed211a-1e78-43e4-b214-50f2b17c694f}, !- Handle
  {2663842c-93f1-4a33-9e13-989789371d5f}, !- Name
  {45726c96-6b86-48a3-8578-cef173a5ec39}, !- HVAC Component
  {667a34fe-8bed-4a3b-ab4d-c9a358fd1053}; !- Port 1

OS:PortList,
  {85d865b3-4cd3-458e-b50a-b2df2c69c4c4}, !- Handle
  {5fd4a70e-d676-4fe9-8e03-0c6ece06097d}, !- Name
  {45726c96-6b86-48a3-8578-cef173a5ec39}; !- HVAC Component

OS:PortList,
  {c54d3064-7c62-4c84-a754-a63c468f3b8c}, !- Handle
  {ac78e9a5-f626-46e5-9547-ebec7fa05a4a}, !- Name
  {45726c96-6b86-48a3-8578-cef173a5ec39}, !- HVAC Component
  {da1a1a30-1e07-4bae-b61e-5083186a19f5}; !- Port 1

OS:Sizing:Zone,
  {e53c1e4d-a9ad-4bd7-9986-3a3782f9a381}, !- Handle
  {45726c96-6b86-48a3-8578-cef173a5ec39}, !- Zone or ZoneList Name
  SupplyAirTemperature,                   !- Zone Cooling Design Supply Air Temperature Input Method
  14,                                     !- Zone Cooling Design Supply Air Temperature {C}
  11.11,                                  !- Zone Cooling Design Supply Air Temperature Difference {deltaC}
  SupplyAirTemperature,                   !- Zone Heating Design Supply Air Temperature Input Method
  40,                                     !- Zone Heating Design Supply Air Temperature {C}
  11.11,                                  !- Zone Heating Design Supply Air Temperature Difference {deltaC}
  0.0085,                                 !- Zone Cooling Design Supply Air Humidity Ratio {kg-H2O/kg-air}
  0.008,                                  !- Zone Heating Design Supply Air Humidity Ratio {kg-H2O/kg-air}
  ,                                       !- Zone Heating Sizing Factor
  ,                                       !- Zone Cooling Sizing Factor
  DesignDay,                              !- Cooling Design Air Flow Method
  ,                                       !- Cooling Design Air Flow Rate {m3/s}
  ,                                       !- Cooling Minimum Air Flow per Zone Floor Area {m3/s-m2}
  ,                                       !- Cooling Minimum Air Flow {m3/s}
  ,                                       !- Cooling Minimum Air Flow Fraction
  DesignDay,                              !- Heating Design Air Flow Method
  ,                                       !- Heating Design Air Flow Rate {m3/s}
  ,                                       !- Heating Maximum Air Flow per Zone Floor Area {m3/s-m2}
  ,                                       !- Heating Maximum Air Flow {m3/s}
  ,                                       !- Heating Maximum Air Flow Fraction
  ,                                       !- Design Zone Air Distribution Effectiveness in Cooling Mode
  ,                                       !- Design Zone Air Distribution Effectiveness in Heating Mode
  No,                                     !- Account for Dedicated Outdoor Air System
  NeutralSupplyAir,                       !- Dedicated Outdoor Air System Control Strategy
  autosize,                               !- Dedicated Outdoor Air Low Setpoint Temperature for Design {C}
  autosize;                               !- Dedicated Outdoor Air High Setpoint Temperature for Design {C}

OS:ZoneHVAC:EquipmentList,
  {d528a691-36e1-40e4-adb2-2e755a8af30d}, !- Handle
  Zone HVAC Equipment List 2,             !- Name
  {45726c96-6b86-48a3-8578-cef173a5ec39}, !- Thermal Zone
  SequentialLoad,                         !- Load Distribution Scheme
  {84105b71-eb89-4630-9622-a815e26197ee}, !- Zone Equipment 1
  1,                                      !- Zone Equipment Cooling Sequence 1
  1;                                      !- Zone Equipment Heating or No-Load Sequence 1

OS:Space,
  {34f9e4df-7c41-4a29-9660-af9d513cb41e}, !- Handle
  living space|unit 2|story 1,            !- Name
  {b362160c-5674-4666-848e-d5a9cff3fcdf}, !- Space Type Name
  ,                                       !- Default Construction Set Name
  ,                                       !- Default Schedule Set Name
  -0,                                     !- Direction of Relative North {deg}
  0,                                      !- X Origin {m}
  0,                                      !- Y Origin {m}
  0,                                      !- Z Origin {m}
  ,                                       !- Building Story Name
  {45726c96-6b86-48a3-8578-cef173a5ec39}, !- Thermal Zone Name
  ,                                       !- Part of Total Floor Area
  ,                                       !- Design Specification Outdoor Air Object Name
  {0c844353-4b6c-4e18-9606-d563cf9f4917}; !- Building Unit Name

OS:Surface,
  {7bfeeabf-2ea6-4961-a08d-2afdac828c28}, !- Handle
  Surface 12,                             !- Name
  Wall,                                   !- Surface Type
  ,                                       !- Construction Name
  {34f9e4df-7c41-4a29-9660-af9d513cb41e}, !- Space Name
  Outdoors,                               !- Outside Boundary Condition
  ,                                       !- Outside Boundary Condition Object
  SunExposed,                             !- Sun Exposure
  WindExposed,                            !- Wind Exposure
  ,                                       !- View Factor to Ground
  ,                                       !- Number of Vertices
  6.46578440716979, -12.9315688143396, 2.4384, !- X,Y,Z Vertex 1 {m}
  6.46578440716979, -12.9315688143396, 0, !- X,Y,Z Vertex 2 {m}
  12.9315688143396, -12.9315688143396, 0, !- X,Y,Z Vertex 3 {m}
  12.9315688143396, -12.9315688143396, 2.4384; !- X,Y,Z Vertex 4 {m}

OS:Surface,
  {5539bf3f-a66f-4365-93c5-434ec673a389}, !- Handle
  Surface 13,                             !- Name
  RoofCeiling,                            !- Surface Type
  ,                                       !- Construction Name
  {34f9e4df-7c41-4a29-9660-af9d513cb41e}, !- Space Name
  Surface,                                !- Outside Boundary Condition
  {7e9ad6ec-f54d-4cad-8c36-1cd5d6ef92ee}, !- Outside Boundary Condition Object
  NoSun,                                  !- Sun Exposure
  NoWind,                                 !- Wind Exposure
  ,                                       !- View Factor to Ground
  ,                                       !- Number of Vertices
  12.9315688143396, -12.9315688143396, 2.4384, !- X,Y,Z Vertex 1 {m}
  12.9315688143396, 0, 2.4384,            !- X,Y,Z Vertex 2 {m}
  6.46578440716979, 0, 2.4384,            !- X,Y,Z Vertex 3 {m}
  6.46578440716979, -12.9315688143396, 2.4384; !- X,Y,Z Vertex 4 {m}

OS:Surface,
  {969ca329-d302-4406-8087-1738ba8295a2}, !- Handle
  Surface 14,                             !- Name
  Floor,                                  !- Surface Type
  ,                                       !- Construction Name
  {34f9e4df-7c41-4a29-9660-af9d513cb41e}, !- Space Name
  Foundation,                             !- Outside Boundary Condition
  ,                                       !- Outside Boundary Condition Object
  NoSun,                                  !- Sun Exposure
  NoWind,                                 !- Wind Exposure
  ,                                       !- View Factor to Ground
  ,                                       !- Number of Vertices
  6.46578440716979, -12.9315688143396, 0, !- X,Y,Z Vertex 1 {m}
  6.46578440716979, 0, 0,                 !- X,Y,Z Vertex 2 {m}
  12.9315688143396, 0, 0,                 !- X,Y,Z Vertex 3 {m}
  12.9315688143396, -12.9315688143396, 0; !- X,Y,Z Vertex 4 {m}

OS:Surface,
  {4845280a-4e9a-486a-b4f7-d0ff54751bfe}, !- Handle
  Surface 15,                             !- Name
  Wall,                                   !- Surface Type
  ,                                       !- Construction Name
  {34f9e4df-7c41-4a29-9660-af9d513cb41e}, !- Space Name
  Surface,                                !- Outside Boundary Condition
  {14ea3fbf-45d9-4736-b6a4-2622c261779c}, !- Outside Boundary Condition Object
  NoSun,                                  !- Sun Exposure
  NoWind,                                 !- Wind Exposure
  ,                                       !- View Factor to Ground
  ,                                       !- Number of Vertices
  6.46578440716979, 0, 2.4384,            !- X,Y,Z Vertex 1 {m}
  6.46578440716979, 0, 0,                 !- X,Y,Z Vertex 2 {m}
  6.46578440716979, -12.9315688143396, 0, !- X,Y,Z Vertex 3 {m}
  6.46578440716979, -12.9315688143396, 2.4384; !- X,Y,Z Vertex 4 {m}

OS:Surface,
  {f8cf9b85-0a83-41c0-bbb3-87b7f7017bfa}, !- Handle
  Surface 16,                             !- Name
  Wall,                                   !- Surface Type
  ,                                       !- Construction Name
  {34f9e4df-7c41-4a29-9660-af9d513cb41e}, !- Space Name
  Outdoors,                               !- Outside Boundary Condition
  ,                                       !- Outside Boundary Condition Object
  SunExposed,                             !- Sun Exposure
  WindExposed,                            !- Wind Exposure
  ,                                       !- View Factor to Ground
  ,                                       !- Number of Vertices
  12.9315688143396, 0, 2.4384,            !- X,Y,Z Vertex 1 {m}
  12.9315688143396, 0, 0,                 !- X,Y,Z Vertex 2 {m}
  6.46578440716979, 0, 0,                 !- X,Y,Z Vertex 3 {m}
  6.46578440716979, 0, 2.4384;            !- X,Y,Z Vertex 4 {m}

OS:Surface,
  {31f8095e-10fb-4d88-a28b-e36333913411}, !- Handle
  Surface 17,                             !- Name
  Wall,                                   !- Surface Type
  ,                                       !- Construction Name
  {34f9e4df-7c41-4a29-9660-af9d513cb41e}, !- Space Name
  Surface,                                !- Outside Boundary Condition
  {8d98219d-2fe8-42cd-a853-a7a13dc8da8a}, !- Outside Boundary Condition Object
  NoSun,                                  !- Sun Exposure
  NoWind,                                 !- Wind Exposure
  ,                                       !- View Factor to Ground
  ,                                       !- Number of Vertices
  12.9315688143396, -12.9315688143396, 2.4384, !- X,Y,Z Vertex 1 {m}
  12.9315688143396, -12.9315688143396, 0, !- X,Y,Z Vertex 2 {m}
  12.9315688143396, 0, 0,                 !- X,Y,Z Vertex 3 {m}
  12.9315688143396, 0, 2.4384;            !- X,Y,Z Vertex 4 {m}

OS:ThermalZone,
  {5875f0c0-7f98-4066-9066-e50efa635613}, !- Handle
  living zone|unit 3,                     !- Name
  ,                                       !- Multiplier
  ,                                       !- Ceiling Height {m}
  ,                                       !- Volume {m3}
  ,                                       !- Floor Area {m2}