!- NOTE: Auto-generated from /test/osw_files/MF_8units_1story_SL_3Beds_2Baths_Denver_Furnace_CentralAC.osw

OS:Version,
  {5c71bdc7-d331-47fd-91c4-029caf2c4a82}, !- Handle
  2.5.1;                                  !- Version Identifier

OS:Building,
  {73606957-f175-464a-ba25-9f90493a939d}, !- Handle
  Building 1,                             !- Name
  ,                                       !- Building Sector Type
  0,                                      !- North Axis {deg}
  ,                                       !- Nominal Floor to Floor Height {m}
  ,                                       !- Space Type Name
  ,                                       !- Default Construction Set Name
  ,                                       !- Default Schedule Set Name
  1,                                      !- Standards Number of Stories
  1,                                      !- Standards Number of Above Ground Stories
  multifamily,                            !- Standards Building Type
  8;                                      !- Standards Number of Living Units

OS:Facility,
  {c07771d9-a14e-4401-a48b-0ba429c7a71a}; !- Handle

OS:Site,
  {be91ffdd-0ce2-4bde-853d-1c690a35b706}, !- Handle
  Denver Intl Ap_CO_USA,                  !- Name
  39.83,                                  !- Latitude {deg}
  -104.65,                                !- Longitude {deg}
  -7,                                     !- Time Zone {hr}
  1650,                                   !- Elevation {m}
  ;                                       !- Terrain

OS:SimulationControl,
  {fe6beb23-1dc4-433f-9e5a-5d99aa1f5a14}, !- Handle
  ,                                       !- Do Zone Sizing Calculation
  ,                                       !- Do System Sizing Calculation
  ,                                       !- Do Plant Sizing Calculation
  No;                                     !- Run Simulation for Sizing Periods

OS:Sizing:Parameters,
  {da1c7a1b-33f7-45d5-b5f1-3fcd7c0371e2}, !- Handle
  1.25,                                   !- Heating Sizing Factor
  1.15;                                   !- Cooling Sizing Factor

OS:Timestep,
  {b2303c55-6d8e-43ee-9d4e-ebdc4cb51e02}, !- Handle
  6;                                      !- Number of Timesteps per Hour

OS:ShadowCalculation,
  {6da2add5-25b1-48cd-b53b-fd226499fe0a}, !- Handle
  20,                                     !- Calculation Frequency
  200;                                    !- Maximum Figures in Shadow Overlap Calculations

OS:HeatBalanceAlgorithm,
  {2a567b8d-ccf4-490b-a60d-7721eddb9507}, !- Handle
  ConductionTransferFunction,             !- Algorithm
  200;                                    !- Surface Temperature Upper Limit {C}

OS:RunPeriod,
  {69b8cd8d-cc80-42f8-896e-e5ce9199eceb}, !- Handle
  Run Period 1,                           !- Name
  1,                                      !- Begin Month
  1,                                      !- Begin Day of Month
  12,                                     !- End Month
  31,                                     !- End Day of Month
  ,                                       !- Use Weather File Holidays and Special Days
  ,                                       !- Use Weather File Daylight Saving Period
  ,                                       !- Apply Weekend Holiday Rule
  ,                                       !- Use Weather File Rain Indicators
  ,                                       !- Use Weather File Snow Indicators
  ;                                       !- Number of Times Runperiod to be Repeated

OS:LifeCycleCost:Parameters,
  {98708565-d2ef-4932-b0d4-5e7ec5358f26}, !- Handle
  ,                                       !- Analysis Type
  ,                                       !- Discounting Convention
  ,                                       !- Inflation Approach
  ,                                       !- Real Discount Rate
  ,                                       !- Nominal Discount Rate
  ,                                       !- Inflation
  ,                                       !- Base Date Month
  ,                                       !- Base Date Year
  ,                                       !- Service Date Month
  ,                                       !- Service Date Year
  ;                                       !- Length of Study Period in Years

OS:ThermalZone,
  {97132426-9df1-49aa-a980-7b2a5995bfd6}, !- Handle
  living zone,                            !- Name
  ,                                       !- Multiplier
  ,                                       !- Ceiling Height {m}
  ,                                       !- Volume {m3}
  ,                                       !- Floor Area {m2}
  ,                                       !- Zone Inside Convection Algorithm
  ,                                       !- Zone Outside Convection Algorithm
  ,                                       !- Zone Conditioning Equipment List Name
  {bdd14c8b-95fe-4c88-8040-41ec6eb1320e}, !- Zone Air Inlet Port List
  {9178acfe-2e27-4fae-9853-74239d48dec4}, !- Zone Air Exhaust Port List
  {36921a8b-768a-4c51-9f87-95d9e723d0cb}, !- Zone Air Node Name
  {698ba840-d2ec-40fa-b207-e119ecb33fee}, !- Zone Return Air Node Name
  ,                                       !- Primary Daylighting Control Name
  ,                                       !- Fraction of Zone Controlled by Primary Daylighting Control
  ,                                       !- Secondary Daylighting Control Name
  ,                                       !- Fraction of Zone Controlled by Secondary Daylighting Control
  ,                                       !- Illuminance Map Name
  ,                                       !- Group Rendering Name
  {90856eba-9f8e-4078-9a38-257f740fcc76}, !- Thermostat Name
  No;                                     !- Use Ideal Air Loads

OS:Node,
  {3f851341-1196-4d6c-9352-826f23092dd5}, !- Handle
  Node 1,                                 !- Name
  {36921a8b-768a-4c51-9f87-95d9e723d0cb}, !- Inlet Port
  ;                                       !- Outlet Port

OS:Connection,
  {36921a8b-768a-4c51-9f87-95d9e723d0cb}, !- Handle
  {913674d2-8230-4150-81b0-abd1f23c73fb}, !- Name
  {97132426-9df1-49aa-a980-7b2a5995bfd6}, !- Source Object
  11,                                     !- Outlet Port
  {3f851341-1196-4d6c-9352-826f23092dd5}, !- Target Object
  2;                                      !- Inlet Port

OS:PortList,
  {bdd14c8b-95fe-4c88-8040-41ec6eb1320e}, !- Handle
  {6549fafd-2def-45d1-b160-a68d6c4bbd55}, !- Name
  {97132426-9df1-49aa-a980-7b2a5995bfd6}, !- HVAC Component
  {5b6f7a0b-ba94-4b11-9d5d-3a33852cadee}; !- Port 1

OS:PortList,
  {9178acfe-2e27-4fae-9853-74239d48dec4}, !- Handle
  {993c7602-dba6-4c1d-89fc-e36a2ff4b9a5}, !- Name
  {97132426-9df1-49aa-a980-7b2a5995bfd6}; !- HVAC Component

OS:Sizing:Zone,
  {cc0e3c29-0ab7-4668-9fd3-e11fafce8378}, !- Handle
  {97132426-9df1-49aa-a980-7b2a5995bfd6}, !- Zone or ZoneList Name
  SupplyAirTemperature,                   !- Zone Cooling Design Supply Air Temperature Input Method
  14,                                     !- Zone Cooling Design Supply Air Temperature {C}
  11.11,                                  !- Zone Cooling Design Supply Air Temperature Difference {deltaC}
  SupplyAirTemperature,                   !- Zone Heating Design Supply Air Temperature Input Method
  40,                                     !- Zone Heating Design Supply Air Temperature {C}
  11.11,                                  !- Zone Heating Design Supply Air Temperature Difference {deltaC}
  0.0085,                                 !- Zone Cooling Design Supply Air Humidity Ratio {kg-H2O/kg-air}
  0.008,                                  !- Zone Heating Design Supply Air Humidity Ratio {kg-H2O/kg-air}
  ,                                       !- Zone Heating Sizing Factor
  ,                                       !- Zone Cooling Sizing Factor
  DesignDay,                              !- Cooling Design Air Flow Method
  ,                                       !- Cooling Design Air Flow Rate {m3/s}
  ,                                       !- Cooling Minimum Air Flow per Zone Floor Area {m3/s-m2}
  ,                                       !- Cooling Minimum Air Flow {m3/s}
  ,                                       !- Cooling Minimum Air Flow Fraction
  DesignDay,                              !- Heating Design Air Flow Method
  ,                                       !- Heating Design Air Flow Rate {m3/s}
  ,                                       !- Heating Maximum Air Flow per Zone Floor Area {m3/s-m2}
  ,                                       !- Heating Maximum Air Flow {m3/s}
  ,                                       !- Heating Maximum Air Flow Fraction
  ,                                       !- Design Zone Air Distribution Effectiveness in Cooling Mode
  ,                                       !- Design Zone Air Distribution Effectiveness in Heating Mode
  No,                                     !- Account for Dedicated Outdoor Air System
  NeutralSupplyAir,                       !- Dedicated Outdoor Air System Control Strategy
  autosize,                               !- Dedicated Outdoor Air Low Setpoint Temperature for Design {C}
  autosize;                               !- Dedicated Outdoor Air High Setpoint Temperature for Design {C}

OS:ZoneHVAC:EquipmentList,
  {6823d6b3-7839-4c4c-91fc-3fbec41f9f4d}, !- Handle
  Zone HVAC Equipment List 1,             !- Name
  {97132426-9df1-49aa-a980-7b2a5995bfd6}, !- Thermal Zone
  {e47b03db-73c2-4f54-841b-a96793fa6ba5}, !- Zone Equipment 1
  1,                                      !- Zone Equipment Cooling Sequence 1
  1;                                      !- Zone Equipment Heating or No-Load Sequence 1

OS:Space,
  {c5e1de89-0eea-4be0-b93e-c6ca23f1a625}, !- Handle
  living space,                           !- Name
  {ac8c343c-b2a9-4ea9-8e56-5273398ca3cf}, !- Space Type Name
  ,                                       !- Default Construction Set Name
  ,                                       !- Default Schedule Set Name
  ,                                       !- Direction of Relative North {deg}
  ,                                       !- X Origin {m}
  ,                                       !- Y Origin {m}
  ,                                       !- Z Origin {m}
  ,                                       !- Building Story Name
  {97132426-9df1-49aa-a980-7b2a5995bfd6}, !- Thermal Zone Name
  ,                                       !- Part of Total Floor Area
  ,                                       !- Design Specification Outdoor Air Object Name
  {a7c750d5-526b-4045-9789-f9c418b3822d}; !- Building Unit Name

OS:Surface,
  {aeb7968d-b6e6-4fbc-8d62-eb5eb25c5f10}, !- Handle
  Surface 1,                              !- Name
  Floor,                                  !- Surface Type
  ,                                       !- Construction Name
  {c5e1de89-0eea-4be0-b93e-c6ca23f1a625}, !- Space Name
  Foundation,                             !- Outside Boundary Condition
  ,                                       !- Outside Boundary Condition Object
  NoSun,                                  !- Sun Exposure
  NoWind,                                 !- Wind Exposure
  ,                                       !- View Factor to Ground
  ,                                       !- Number of Vertices
  0, -12.9315688143396, 0,                !- X,Y,Z Vertex 1 {m}
  0, 0, 0,                                !- X,Y,Z Vertex 2 {m}
  6.46578440716979, 0, 0,                 !- X,Y,Z Vertex 3 {m}
  6.46578440716979, -12.9315688143396, 0; !- X,Y,Z Vertex 4 {m}

OS:Surface,
  {08595e55-261e-460b-92e3-33887b82e29d}, !- Handle
  Surface 2,                              !- Name
  Wall,                                   !- Surface Type
  ,                                       !- Construction Name
  {c5e1de89-0eea-4be0-b93e-c6ca23f1a625}, !- Space Name
  Outdoors,                               !- Outside Boundary Condition
  ,                                       !- Outside Boundary Condition Object
  SunExposed,                             !- Sun Exposure
  WindExposed,                            !- Wind Exposure
  ,                                       !- View Factor to Ground
  ,                                       !- Number of Vertices
  0, 0, 2.4384,                           !- X,Y,Z Vertex 1 {m}
  0, 0, 0,                                !- X,Y,Z Vertex 2 {m}
  0, -12.9315688143396, 0,                !- X,Y,Z Vertex 3 {m}
  0, -12.9315688143396, 2.4384;           !- X,Y,Z Vertex 4 {m}

OS:Surface,
  {ee4867a0-31f8-4df5-ba87-11517474920d}, !- Handle
  Surface 3,                              !- Name
  Wall,                                   !- Surface Type
  ,                                       !- Construction Name
  {c5e1de89-0eea-4be0-b93e-c6ca23f1a625}, !- Space Name
  Adiabatic,                              !- Outside Boundary Condition
  ,                                       !- Outside Boundary Condition Object
  NoSun,                                  !- Sun Exposure
  NoWind,                                 !- Wind Exposure
  ,                                       !- View Factor to Ground
  ,                                       !- Number of Vertices
  6.46578440716979, 0, 2.4384,            !- X,Y,Z Vertex 1 {m}
  6.46578440716979, 0, 0,                 !- X,Y,Z Vertex 2 {m}
  0, 0, 0,                                !- X,Y,Z Vertex 3 {m}
  0, 0, 2.4384;                           !- X,Y,Z Vertex 4 {m}

OS:Surface,
  {b62485e2-7024-4cdd-b589-4b315e033074}, !- Handle
  Surface 4,                              !- Name
  Wall,                                   !- Surface Type
  ,                                       !- Construction Name
  {c5e1de89-0eea-4be0-b93e-c6ca23f1a625}, !- Space Name
  Surface,                                !- Outside Boundary Condition
  {3d0cafe9-74b3-4057-9b46-caafc7ab050c}, !- Outside Boundary Condition Object
  NoSun,                                  !- Sun Exposure
  NoWind,                                 !- Wind Exposure
  ,                                       !- View Factor to Ground
  ,                                       !- Number of Vertices
  6.46578440716979, -12.9315688143396, 2.4384, !- X,Y,Z Vertex 1 {m}
  6.46578440716979, -12.9315688143396, 0, !- X,Y,Z Vertex 2 {m}
  6.46578440716979, 0, 0,                 !- X,Y,Z Vertex 3 {m}
  6.46578440716979, 0, 2.4384;            !- X,Y,Z Vertex 4 {m}

OS:Surface,
  {97cdc664-2b77-47e3-b12a-883beb2e71fc}, !- Handle
  Surface 5,                              !- Name
  Wall,                                   !- Surface Type
  ,                                       !- Construction Name
  {c5e1de89-0eea-4be0-b93e-c6ca23f1a625}, !- Space Name
  Outdoors,                               !- Outside Boundary Condition
  ,                                       !- Outside Boundary Condition Object
  SunExposed,                             !- Sun Exposure
  WindExposed,                            !- Wind Exposure
  ,                                       !- View Factor to Ground
  ,                                       !- Number of Vertices
  0, -12.9315688143396, 2.4384,           !- X,Y,Z Vertex 1 {m}
  0, -12.9315688143396, 0,                !- X,Y,Z Vertex 2 {m}
  6.46578440716979, -12.9315688143396, 0, !- X,Y,Z Vertex 3 {m}
  6.46578440716979, -12.9315688143396, 2.4384; !- X,Y,Z Vertex 4 {m}

OS:Surface,
  {eb4d950e-9d21-40da-8f0a-83cd8e9a9d5b}, !- Handle
  Surface 6,                              !- Name
  RoofCeiling,                            !- Surface Type
  ,                                       !- Construction Name
  {c5e1de89-0eea-4be0-b93e-c6ca23f1a625}, !- Space Name
  Outdoors,                               !- Outside Boundary Condition
  ,                                       !- Outside Boundary Condition Object
  SunExposed,                             !- Sun Exposure
  WindExposed,                            !- Wind Exposure
  ,                                       !- View Factor to Ground
  ,                                       !- Number of Vertices
  6.46578440716979, -12.9315688143396, 2.4384, !- X,Y,Z Vertex 1 {m}
  6.46578440716979, 0, 2.4384,            !- X,Y,Z Vertex 2 {m}
  0, 0, 2.4384,                           !- X,Y,Z Vertex 3 {m}
  0, -12.9315688143396, 2.4384;           !- X,Y,Z Vertex 4 {m}

OS:SpaceType,
  {ac8c343c-b2a9-4ea9-8e56-5273398ca3cf}, !- Handle
  Space Type 1,                           !- Name
  ,                                       !- Default Construction Set Name
  ,                                       !- Default Schedule Set Name
  ,                                       !- Group Rendering Name
  ,                                       !- Design Specification Outdoor Air Object Name
  ,                                       !- Standards Building Type
  living;                                 !- Standards Space Type

OS:ThermalZone,
  {eb00cf88-5ce8-4071-8bbb-3945fe9a35b4}, !- Handle
  living zone|unit 2,                     !- Name
  ,                                       !- Multiplier
  ,                                       !- Ceiling Height {m}
  ,                                       !- Volume {m3}
  ,                                       !- Floor Area {m2}
  ,                                       !- Zone Inside Convection Algorithm
  ,                                       !- Zone Outside Convection Algorithm
  ,                                       !- Zone Conditioning Equipment List Name
  {2d7c2979-8e8e-45cf-9be3-1cce9a00335f}, !- Zone Air Inlet Port List
  {e9de465b-f7a9-4052-a2d2-0142b82f8b91}, !- Zone Air Exhaust Port List
  {aac26d83-bd7d-4a6d-844b-a86f0b7ae6c2}, !- Zone Air Node Name
  {c58ac204-5454-4770-bdcf-aa593427c43d}, !- Zone Return Air Node Name
  ,                                       !- Primary Daylighting Control Name
  ,                                       !- Fraction of Zone Controlled by Primary Daylighting Control
  ,                                       !- Secondary Daylighting Control Name
  ,                                       !- Fraction of Zone Controlled by Secondary Daylighting Control
  ,                                       !- Illuminance Map Name
  ,                                       !- Group Rendering Name
  {1f730e27-70fa-40c0-a5ba-0228bd5353bb}, !- Thermostat Name
  No;                                     !- Use Ideal Air Loads

OS:Node,
  {d2b9f766-166a-49bc-bda3-bd08ebc778c8}, !- Handle
  Node 2,                                 !- Name
  {aac26d83-bd7d-4a6d-844b-a86f0b7ae6c2}, !- Inlet Port
  ;                                       !- Outlet Port

OS:Connection,
  {aac26d83-bd7d-4a6d-844b-a86f0b7ae6c2}, !- Handle
  {76229d79-7a8b-427e-abbf-27bd78197c82}, !- Name
  {eb00cf88-5ce8-4071-8bbb-3945fe9a35b4}, !- Source Object
  11,                                     !- Outlet Port
  {d2b9f766-166a-49bc-bda3-bd08ebc778c8}, !- Target Object
  2;                                      !- Inlet Port

OS:PortList,
  {2d7c2979-8e8e-45cf-9be3-1cce9a00335f}, !- Handle
  {04af399b-c46b-47a3-ada7-298614659909}, !- Name
  {eb00cf88-5ce8-4071-8bbb-3945fe9a35b4}, !- HVAC Component
  {78cb6562-d66d-41ac-9c08-a466b03931e1}; !- Port 1

OS:PortList,
  {e9de465b-f7a9-4052-a2d2-0142b82f8b91}, !- Handle
  {59c2faf1-2448-4d8d-9f77-d920a8c5fafe}, !- Name
  {eb00cf88-5ce8-4071-8bbb-3945fe9a35b4}; !- HVAC Component

OS:Sizing:Zone,
  {43da2e50-3d79-4e6c-932c-6af4e3e365f8}, !- Handle
  {eb00cf88-5ce8-4071-8bbb-3945fe9a35b4}, !- Zone or ZoneList Name
  SupplyAirTemperature,                   !- Zone Cooling Design Supply Air Temperature Input Method
  14,                                     !- Zone Cooling Design Supply Air Temperature {C}
  11.11,                                  !- Zone Cooling Design Supply Air Temperature Difference {deltaC}
  SupplyAirTemperature,                   !- Zone Heating Design Supply Air Temperature Input Method
  40,                                     !- Zone Heating Design Supply Air Temperature {C}
  11.11,                                  !- Zone Heating Design Supply Air Temperature Difference {deltaC}
  0.0085,                                 !- Zone Cooling Design Supply Air Humidity Ratio {kg-H2O/kg-air}
  0.008,                                  !- Zone Heating Design Supply Air Humidity Ratio {kg-H2O/kg-air}
  ,                                       !- Zone Heating Sizing Factor
  ,                                       !- Zone Cooling Sizing Factor
  DesignDay,                              !- Cooling Design Air Flow Method
  ,                                       !- Cooling Design Air Flow Rate {m3/s}
  ,                                       !- Cooling Minimum Air Flow per Zone Floor Area {m3/s-m2}
  ,                                       !- Cooling Minimum Air Flow {m3/s}
  ,                                       !- Cooling Minimum Air Flow Fraction
  DesignDay,                              !- Heating Design Air Flow Method
  ,                                       !- Heating Design Air Flow Rate {m3/s}
  ,                                       !- Heating Maximum Air Flow per Zone Floor Area {m3/s-m2}
  ,                                       !- Heating Maximum Air Flow {m3/s}
  ,                                       !- Heating Maximum Air Flow Fraction
  ,                                       !- Design Zone Air Distribution Effectiveness in Cooling Mode
  ,                                       !- Design Zone Air Distribution Effectiveness in Heating Mode
  No,                                     !- Account for Dedicated Outdoor Air System
  NeutralSupplyAir,                       !- Dedicated Outdoor Air System Control Strategy
  autosize,                               !- Dedicated Outdoor Air Low Setpoint Temperature for Design {C}
  autosize;                               !- Dedicated Outdoor Air High Setpoint Temperature for Design {C}

OS:ZoneHVAC:EquipmentList,
  {cb34dcdd-1f57-479f-892f-21c4cf67e8c6}, !- Handle
  Zone HVAC Equipment List 2,             !- Name
  {eb00cf88-5ce8-4071-8bbb-3945fe9a35b4}, !- Thermal Zone
  {7d1332c4-7579-4198-8b39-c5f0536fd06e}, !- Zone Equipment 1
  1,                                      !- Zone Equipment Cooling Sequence 1
  1;                                      !- Zone Equipment Heating or No-Load Sequence 1

OS:Space,
  {e0772d05-de94-472e-99ed-7e626c2d5da6}, !- Handle
  living space|unit 2,                    !- Name
  {ac8c343c-b2a9-4ea9-8e56-5273398ca3cf}, !- Space Type Name
  ,                                       !- Default Construction Set Name
  ,                                       !- Default Schedule Set Name
  ,                                       !- Direction of Relative North {deg}
  ,                                       !- X Origin {m}
  ,                                       !- Y Origin {m}
  ,                                       !- Z Origin {m}
  ,                                       !- Building Story Name
  {eb00cf88-5ce8-4071-8bbb-3945fe9a35b4}, !- Thermal Zone Name
  ,                                       !- Part of Total Floor Area
  ,                                       !- Design Specification Outdoor Air Object Name
  {8f554d98-b84c-4956-9406-ee0a21e5d78a}; !- Building Unit Name

OS:Surface,
  {002830af-0703-4508-b4d6-21fb5237b18a}, !- Handle
  Surface 7,                              !- Name
  Floor,                                  !- Surface Type
  ,                                       !- Construction Name
  {e0772d05-de94-472e-99ed-7e626c2d5da6}, !- Space Name
  Foundation,                             !- Outside Boundary Condition
  ,                                       !- Outside Boundary Condition Object
  NoSun,                                  !- Sun Exposure
  NoWind,                                 !- Wind Exposure
  ,                                       !- View Factor to Ground
  ,                                       !- Number of Vertices
  0, 3.048, 0,                            !- X,Y,Z Vertex 1 {m}
  0, 15.9795688143396, 0,                 !- X,Y,Z Vertex 2 {m}
  6.46578440716979, 15.9795688143396, 0,  !- X,Y,Z Vertex 3 {m}
  6.46578440716979, 3.048, 0;             !- X,Y,Z Vertex 4 {m}

OS:Surface,
  {68e74d9d-c846-49ab-b231-af3955ddb9f0}, !- Handle
  Surface 8,                              !- Name
  Wall,                                   !- Surface Type
  ,                                       !- Construction Name
  {e0772d05-de94-472e-99ed-7e626c2d5da6}, !- Space Name
  Outdoors,                               !- Outside Boundary Condition
  ,                                       !- Outside Boundary Condition Object
  SunExposed,                             !- Sun Exposure
  WindExposed,                            !- Wind Exposure
  ,                                       !- View Factor to Ground
  ,                                       !- Number of Vertices
  0, 15.9795688143396, 2.4384,            !- X,Y,Z Vertex 1 {m}
  0, 15.9795688143396, 0,                 !- X,Y,Z Vertex 2 {m}
  0, 3.048, 0,                            !- X,Y,Z Vertex 3 {m}
  0, 3.048, 2.4384;                       !- X,Y,Z Vertex 4 {m}

OS:Surface,
  {0355ab8e-238e-4e54-a66a-044708c47e54}, !- Handle
  Surface 9,                              !- Name
  Wall,                                   !- Surface Type
  ,                                       !- Construction Name
  {e0772d05-de94-472e-99ed-7e626c2d5da6}, !- Space Name
  Outdoors,                               !- Outside Boundary Condition
  ,                                       !- Outside Boundary Condition Object
  SunExposed,                             !- Sun Exposure
  WindExposed,                            !- Wind Exposure
  ,                                       !- View Factor to Ground
  ,                                       !- Number of Vertices
  6.46578440716979, 15.9795688143396, 2.4384, !- X,Y,Z Vertex 1 {m}
  6.46578440716979, 15.9795688143396, 0,  !- X,Y,Z Vertex 2 {m}
  0, 15.9795688143396, 0,                 !- X,Y,Z Vertex 3 {m}
  0, 15.9795688143396, 2.4384;            !- X,Y,Z Vertex 4 {m}

OS:Surface,
  {f40de8b3-a42d-49c1-ab91-40f6d684dd89}, !- Handle
  Surface 10,                             !- Name
  Wall,                                   !- Surface Type
  ,                                       !- Construction Name
  {e0772d05-de94-472e-99ed-7e626c2d5da6}, !- Space Name
  Surface,                                !- Outside Boundary Condition
  {fca981b6-2d75-451a-9e18-18aea68f2c35}, !- Outside Boundary Condition Object
  NoSun,                                  !- Sun Exposure
  NoWind,                                 !- Wind Exposure
  ,                                       !- View Factor to Ground
  ,                                       !- Number of Vertices
  6.46578440716979, 3.048, 2.4384,        !- X,Y,Z Vertex 1 {m}
  6.46578440716979, 3.048, 0,             !- X,Y,Z Vertex 2 {m}
  6.46578440716979, 15.9795688143396, 0,  !- X,Y,Z Vertex 3 {m}
  6.46578440716979, 15.9795688143396, 2.4384; !- X,Y,Z Vertex 4 {m}

OS:Surface,
  {75e6fb4f-968b-4251-bb2a-f9e72ab4ccbf}, !- Handle
  Surface 11,                             !- Name
  Wall,                                   !- Surface Type
  ,                                       !- Construction Name
  {e0772d05-de94-472e-99ed-7e626c2d5da6}, !- Space Name
  Adiabatic,                              !- Outside Boundary Condition
  ,                                       !- Outside Boundary Condition Object
  NoSun,                                  !- Sun Exposure
  NoWind,                                 !- Wind Exposure
  ,                                       !- View Factor to Ground
  ,                                       !- Number of Vertices
  0, 3.048, 2.4384,                       !- X,Y,Z Vertex 1 {m}
  0, 3.048, 0,                            !- X,Y,Z Vertex 2 {m}
  6.46578440716979, 3.048, 0,             !- X,Y,Z Vertex 3 {m}
  6.46578440716979, 3.048, 2.4384;        !- X,Y,Z Vertex 4 {m}

OS:Surface,
  {d2ed24f3-0cca-48c9-9024-ae2576cb7979}, !- Handle
  Surface 12,                             !- Name
  RoofCeiling,                            !- Surface Type
  ,                                       !- Construction Name
  {e0772d05-de94-472e-99ed-7e626c2d5da6}, !- Space Name
  Outdoors,                               !- Outside Boundary Condition
  ,                                       !- Outside Boundary Condition Object
  SunExposed,                             !- Sun Exposure
  WindExposed,                            !- Wind Exposure
  ,                                       !- View Factor to Ground
  ,                                       !- Number of Vertices
  6.46578440716979, 3.048, 2.4384,        !- X,Y,Z Vertex 1 {m}
  6.46578440716979, 15.9795688143396, 2.4384, !- X,Y,Z Vertex 2 {m}
  0, 15.9795688143396, 2.4384,            !- X,Y,Z Vertex 3 {m}
  0, 3.048, 2.4384;                       !- X,Y,Z Vertex 4 {m}

OS:ThermalZone,
  {4ef055d6-c110-4b7e-a856-b914e0b2d644}, !- Handle
  living zone|unit 3,                     !- Name
  ,                                       !- Multiplier
  ,                                       !- Ceiling Height {m}
  ,                                       !- Volume {m3}
  ,                                       !- Floor Area {m2}
  ,                                       !- Zone Inside Convection Algorithm
  ,                                       !- Zone Outside Convection Algorithm
  ,                                       !- Zone Conditioning Equipment List Name
  {080d32fc-a1bf-441a-8f3c-71211b54cfdc}, !- Zone Air Inlet Port List
  {15b68627-7963-4431-8545-7060c0411930}, !- Zone Air Exhaust Port List
  {c2beab83-fe35-4116-b166-0300a2ed85ef}, !- Zone Air Node Name
  {3f60e613-a318-46fb-b703-6012be78aa1d}, !- Zone Return Air Node Name
  ,                                       !- Primary Daylighting Control Name