!- NOTE: Auto-generated from /test/osw_files/SFD_2000sqft_2story_PB_UA_3Beds_2Baths_Denver_Furnace_CentralAC.osw

OS:Version,
  {c7a1feac-38e4-406e-8a2c-80571bc29c95}, !- Handle
  2.6.1;                                  !- Version Identifier

OS:Building,
  {97975e7e-b7ab-4e6f-847d-2963883b9073}, !- Handle
  Building 1,                             !- Name
  ,                                       !- Building Sector Type
  0,                                      !- North Axis {deg}
  ,                                       !- Nominal Floor to Floor Height {m}
  ,                                       !- Space Type Name
  ,                                       !- Default Construction Set Name
  ,                                       !- Default Schedule Set Name
  2,                                      !- Standards Number of Stories
  2,                                      !- Standards Number of Above Ground Stories
  singlefamilydetached,                   !- Standards Building Type
  1;                                      !- Standards Number of Living Units

OS:Facility,
  {3e75a33c-0d54-46e7-8196-c569f4daab52}; !- Handle

OS:Site,
  {01e4377a-eaa5-4f0c-8838-9e9c76686087}, !- Handle
  Denver Intl Ap_CO_USA,                  !- Name
  39.83,                                  !- Latitude {deg}
  -104.65,                                !- Longitude {deg}
  -7,                                     !- Time Zone {hr}
  1650,                                   !- Elevation {m}
  ;                                       !- Terrain

OS:SimulationControl,
  {669aa928-e374-40fd-8fb7-2223b0f0739a}, !- Handle
  ,                                       !- Do Zone Sizing Calculation
  ,                                       !- Do System Sizing Calculation
  ,                                       !- Do Plant Sizing Calculation
  No;                                     !- Run Simulation for Sizing Periods

OS:Sizing:Parameters,
  {cfaada13-703d-44d5-b618-3373c5b879a7}, !- Handle
  1.25,                                   !- Heating Sizing Factor
  1.15;                                   !- Cooling Sizing Factor

OS:Timestep,
  {049e1ddb-e20c-4769-a3b5-a2bce204ab80}, !- Handle
  6;                                      !- Number of Timesteps per Hour

OS:ShadowCalculation,
  {d60d3557-dfca-4ada-b210-4014bd29936a}, !- Handle
  20,                                     !- Calculation Frequency
  200;                                    !- Maximum Figures in Shadow Overlap Calculations

OS:HeatBalanceAlgorithm,
  {d0059cc1-36b9-4d38-9702-d1d060d242b1}, !- Handle
  ConductionTransferFunction,             !- Algorithm
  200;                                    !- Surface Temperature Upper Limit {C}

OS:RunPeriod,
  {0c7955a5-5657-4f95-82eb-f3b075c48a8e}, !- Handle
  Run Period 1,                           !- Name
  1,                                      !- Begin Month
  1,                                      !- Begin Day of Month
  12,                                     !- End Month
  31,                                     !- End Day of Month
  ,                                       !- Use Weather File Holidays and Special Days
  ,                                       !- Use Weather File Daylight Saving Period
  ,                                       !- Apply Weekend Holiday Rule
  ,                                       !- Use Weather File Rain Indicators
  ,                                       !- Use Weather File Snow Indicators
  ;                                       !- Number of Times Runperiod to be Repeated

OS:LifeCycleCost:Parameters,
  {adf80458-874e-4e14-99c1-a63e7c35596a}, !- Handle
  ,                                       !- Analysis Type
  ,                                       !- Discounting Convention
  ,                                       !- Inflation Approach
  ,                                       !- Real Discount Rate
  ,                                       !- Nominal Discount Rate
  ,                                       !- Inflation
  ,                                       !- Base Date Month
  ,                                       !- Base Date Year
  ,                                       !- Service Date Month
  ,                                       !- Service Date Year
  ;                                       !- Length of Study Period in Years

OS:ThermalZone,
  {9c86495a-c2f5-458b-9307-56e4f90a4c92}, !- Handle
  living zone,                            !- Name
  ,                                       !- Multiplier
  ,                                       !- Ceiling Height {m}
  ,                                       !- Volume {m3}
  ,                                       !- Floor Area {m2}
  ,                                       !- Zone Inside Convection Algorithm
  ,                                       !- Zone Outside Convection Algorithm
  ,                                       !- Zone Conditioning Equipment List Name
  {f3ce3563-230f-4cb2-9467-ca3999de258a}, !- Zone Air Inlet Port List
  {a69bd420-de45-4262-96c5-41f51b3d977f}, !- Zone Air Exhaust Port List
  {9192845d-8f73-4416-9ba9-5fa5861b8911}, !- Zone Air Node Name
  {234b5755-1207-4a57-9fb9-b340c7edfd61}, !- Zone Return Air Port List
  ,                                       !- Primary Daylighting Control Name
  ,                                       !- Fraction of Zone Controlled by Primary Daylighting Control
  ,                                       !- Secondary Daylighting Control Name
  ,                                       !- Fraction of Zone Controlled by Secondary Daylighting Control
  ,                                       !- Illuminance Map Name
  ,                                       !- Group Rendering Name
  {0256dd9d-64e2-4a8f-8853-74e4b686edd8}, !- Thermostat Name
  No;                                     !- Use Ideal Air Loads

OS:Node,
  {46d42001-c588-4bc7-b57f-58a46a21be0d}, !- Handle
  Node 1,                                 !- Name
  {9192845d-8f73-4416-9ba9-5fa5861b8911}, !- Inlet Port
  ;                                       !- Outlet Port

OS:Connection,
  {9192845d-8f73-4416-9ba9-5fa5861b8911}, !- Handle
  {0e0b626d-5dce-4d9a-a292-eeb6c4868c06}, !- Name
  {9c86495a-c2f5-458b-9307-56e4f90a4c92}, !- Source Object
  11,                                     !- Outlet Port
  {46d42001-c588-4bc7-b57f-58a46a21be0d}, !- Target Object
  2;                                      !- Inlet Port

OS:PortList,
  {f3ce3563-230f-4cb2-9467-ca3999de258a}, !- Handle
  {568b31ac-a24c-4be6-9564-f8cbd7c38a54}, !- Name
  {9c86495a-c2f5-458b-9307-56e4f90a4c92}, !- HVAC Component
  {a14e7d69-02bf-40f9-94d3-ea9b0540c65a}, !- Port 1
  {13b7238f-fc19-4910-b5b8-4c71b8626bb1}; !- Port 2

OS:PortList,
  {a69bd420-de45-4262-96c5-41f51b3d977f}, !- Handle
  {47cad151-0d5f-458c-98b9-4510392a2408}, !- Name
  {9c86495a-c2f5-458b-9307-56e4f90a4c92}; !- HVAC Component

OS:PortList,
  {234b5755-1207-4a57-9fb9-b340c7edfd61}, !- Handle
  {552a167d-1bfe-4930-9d7d-e3309c9809b1}, !- Name
  {9c86495a-c2f5-458b-9307-56e4f90a4c92}, !- HVAC Component
  {389d3238-5b2d-45cc-af48-a356f0951c07}, !- Port 1
  {3ada5c78-64bb-4ee8-9caf-f007567edaf7}; !- Port 2

OS:Sizing:Zone,
  {26be3efc-abe6-4bb2-93b3-517c1aee709d}, !- Handle
  {9c86495a-c2f5-458b-9307-56e4f90a4c92}, !- Zone or ZoneList Name
  SupplyAirTemperature,                   !- Zone Cooling Design Supply Air Temperature Input Method
  14,                                     !- Zone Cooling Design Supply Air Temperature {C}
  11.11,                                  !- Zone Cooling Design Supply Air Temperature Difference {deltaC}
  SupplyAirTemperature,                   !- Zone Heating Design Supply Air Temperature Input Method
  40,                                     !- Zone Heating Design Supply Air Temperature {C}
  11.11,                                  !- Zone Heating Design Supply Air Temperature Difference {deltaC}
  0.0085,                                 !- Zone Cooling Design Supply Air Humidity Ratio {kg-H2O/kg-air}
  0.008,                                  !- Zone Heating Design Supply Air Humidity Ratio {kg-H2O/kg-air}
  ,                                       !- Zone Heating Sizing Factor
  ,                                       !- Zone Cooling Sizing Factor
  DesignDay,                              !- Cooling Design Air Flow Method
  ,                                       !- Cooling Design Air Flow Rate {m3/s}
  ,                                       !- Cooling Minimum Air Flow per Zone Floor Area {m3/s-m2}
  ,                                       !- Cooling Minimum Air Flow {m3/s}
  ,                                       !- Cooling Minimum Air Flow Fraction
  DesignDay,                              !- Heating Design Air Flow Method
  ,                                       !- Heating Design Air Flow Rate {m3/s}
  ,                                       !- Heating Maximum Air Flow per Zone Floor Area {m3/s-m2}
  ,                                       !- Heating Maximum Air Flow {m3/s}
  ,                                       !- Heating Maximum Air Flow Fraction
  ,                                       !- Design Zone Air Distribution Effectiveness in Cooling Mode
  ,                                       !- Design Zone Air Distribution Effectiveness in Heating Mode
  No,                                     !- Account for Dedicated Outdoor Air System
  NeutralSupplyAir,                       !- Dedicated Outdoor Air System Control Strategy
  autosize,                               !- Dedicated Outdoor Air Low Setpoint Temperature for Design {C}
  autosize;                               !- Dedicated Outdoor Air High Setpoint Temperature for Design {C}

OS:ZoneHVAC:EquipmentList,
  {8a56ede4-df78-4c4c-9b51-202ae2611aaf}, !- Handle
  Zone HVAC Equipment List 1,             !- Name
  {9c86495a-c2f5-458b-9307-56e4f90a4c92}, !- Thermal Zone
  {e5a8aa93-8d01-43c7-92c0-70f16e684d08}, !- Zone Equipment 1
  1,                                      !- Zone Equipment Cooling Sequence 1
  1,                                      !- Zone Equipment Heating or No-Load Sequence 1
  {0c7b59f8-ea29-4141-8514-fc10bcd63912}, !- Zone Equipment 2
  2,                                      !- Zone Equipment Cooling Sequence 2
  2;                                      !- Zone Equipment Heating or No-Load Sequence 2

OS:Space,
  {dd777212-dbbb-4c31-8c91-54175fdaed5c}, !- Handle
  living space,                           !- Name
  {82a530a0-1b72-4fb2-8783-eb1d2218bb8b}, !- Space Type Name
  ,                                       !- Default Construction Set Name
  ,                                       !- Default Schedule Set Name
  -0,                                     !- Direction of Relative North {deg}
  0,                                      !- X Origin {m}
  0,                                      !- Y Origin {m}
  0.9144,                                 !- Z Origin {m}
  ,                                       !- Building Story Name
  {9c86495a-c2f5-458b-9307-56e4f90a4c92}, !- Thermal Zone Name
  ,                                       !- Part of Total Floor Area
  ,                                       !- Design Specification Outdoor Air Object Name
  {24bfc0d8-e7dc-492b-88c8-66355d13a35a}; !- Building Unit Name

OS:Surface,
  {b2d8fe08-d134-41d4-837b-6fa604ed340a}, !- Handle
  Surface 1,                              !- Name
  Floor,                                  !- Surface Type
  ,                                       !- Construction Name
  {dd777212-dbbb-4c31-8c91-54175fdaed5c}, !- Space Name
  Surface,                                !- Outside Boundary Condition
  {9f092a3f-23f7-4b6b-87a1-dea90ff6ff3f}, !- Outside Boundary Condition Object
  NoSun,                                  !- Sun Exposure
  NoWind,                                 !- Wind Exposure
  ,                                       !- View Factor to Ground
  ,                                       !- Number of Vertices
  0, 0, -1.11022302462516e-016,           !- X,Y,Z Vertex 1 {m}
  0, 6.81553519541936, -1.11022302462516e-016, !- X,Y,Z Vertex 2 {m}
  13.6310703908387, 6.81553519541936, -1.11022302462516e-016, !- X,Y,Z Vertex 3 {m}
  13.6310703908387, 0, -1.11022302462516e-016; !- X,Y,Z Vertex 4 {m}

OS:Surface,
  {fa565f02-e66e-456f-8806-001f9bb2f656}, !- Handle
  Surface 2,                              !- Name
  Wall,                                   !- Surface Type
  ,                                       !- Construction Name
  {dd777212-dbbb-4c31-8c91-54175fdaed5c}, !- Space Name
  Outdoors,                               !- Outside Boundary Condition
  ,                                       !- Outside Boundary Condition Object
  SunExposed,                             !- Sun Exposure
  WindExposed,                            !- Wind Exposure
  ,                                       !- View Factor to Ground
  ,                                       !- Number of Vertices
  0, 6.81553519541936, 2.4384,            !- X,Y,Z Vertex 1 {m}
  0, 6.81553519541936, -1.11022302462516e-016, !- X,Y,Z Vertex 2 {m}
  0, 0, -1.11022302462516e-016,           !- X,Y,Z Vertex 3 {m}
  0, 0, 2.4384;                           !- X,Y,Z Vertex 4 {m}

OS:Surface,
  {b86d590a-43d8-4063-a04f-a586ccd20af8}, !- Handle
  Surface 3,                              !- Name
  Wall,                                   !- Surface Type
  ,                                       !- Construction Name
  {dd777212-dbbb-4c31-8c91-54175fdaed5c}, !- Space Name
  Outdoors,                               !- Outside Boundary Condition
  ,                                       !- Outside Boundary Condition Object
  SunExposed,                             !- Sun Exposure
  WindExposed,                            !- Wind Exposure
  ,                                       !- View Factor to Ground
  ,                                       !- Number of Vertices
  13.6310703908387, 6.81553519541936, 2.4384, !- X,Y,Z Vertex 1 {m}
  13.6310703908387, 6.81553519541936, -1.11022302462516e-016, !- X,Y,Z Vertex 2 {m}
  0, 6.81553519541936, -1.11022302462516e-016, !- X,Y,Z Vertex 3 {m}
  0, 6.81553519541936, 2.4384;            !- X,Y,Z Vertex 4 {m}

OS:Surface,
  {8910d37e-81c4-42cb-90b8-52383ae0c42f}, !- Handle
  Surface 4,                              !- Name
  Wall,                                   !- Surface Type
  ,                                       !- Construction Name
  {dd777212-dbbb-4c31-8c91-54175fdaed5c}, !- Space Name
  Outdoors,                               !- Outside Boundary Condition
  ,                                       !- Outside Boundary Condition Object
  SunExposed,                             !- Sun Exposure
  WindExposed,                            !- Wind Exposure
  ,                                       !- View Factor to Ground
  ,                                       !- Number of Vertices
  13.6310703908387, 0, 2.4384,            !- X,Y,Z Vertex 1 {m}
  13.6310703908387, 0, -1.11022302462516e-016, !- X,Y,Z Vertex 2 {m}
  13.6310703908387, 6.81553519541936, -1.11022302462516e-016, !- X,Y,Z Vertex 3 {m}
  13.6310703908387, 6.81553519541936, 2.4384; !- X,Y,Z Vertex 4 {m}

OS:Surface,
  {2354686b-22d3-4a40-88ce-7994912a3881}, !- Handle
  Surface 5,                              !- Name
  Wall,                                   !- Surface Type
  ,                                       !- Construction Name
  {dd777212-dbbb-4c31-8c91-54175fdaed5c}, !- Space Name
  Outdoors,                               !- Outside Boundary Condition
  ,                                       !- Outside Boundary Condition Object
  SunExposed,                             !- Sun Exposure
  WindExposed,                            !- Wind Exposure
  ,                                       !- View Factor to Ground
  ,                                       !- Number of Vertices
  0, 0, 2.4384,                           !- X,Y,Z Vertex 1 {m}
  0, 0, -1.11022302462516e-016,           !- X,Y,Z Vertex 2 {m}
  13.6310703908387, 0, -1.11022302462516e-016, !- X,Y,Z Vertex 3 {m}
  13.6310703908387, 0, 2.4384;            !- X,Y,Z Vertex 4 {m}

OS:Surface,
  {1dc85098-d3e5-4ff5-be42-e6d5222462e6}, !- Handle
  Surface 6,                              !- Name
  RoofCeiling,                            !- Surface Type
  ,                                       !- Construction Name
  {dd777212-dbbb-4c31-8c91-54175fdaed5c}, !- Space Name
  Surface,                                !- Outside Boundary Condition
  {b12e3d22-5bff-4677-ad84-4500e61dba48}, !- Outside Boundary Condition Object
  NoSun,                                  !- Sun Exposure
  NoWind,                                 !- Wind Exposure
  ,                                       !- View Factor to Ground
  ,                                       !- Number of Vertices
  13.6310703908387, 0, 2.4384,            !- X,Y,Z Vertex 1 {m}
  13.6310703908387, 6.81553519541936, 2.4384, !- X,Y,Z Vertex 2 {m}
  0, 6.81553519541936, 2.4384,            !- X,Y,Z Vertex 3 {m}
  0, 0, 2.4384;                           !- X,Y,Z Vertex 4 {m}

OS:SpaceType,
  {82a530a0-1b72-4fb2-8783-eb1d2218bb8b}, !- Handle
  Space Type 1,                           !- Name
  ,                                       !- Default Construction Set Name
  ,                                       !- Default Schedule Set Name
  ,                                       !- Group Rendering Name
  ,                                       !- Design Specification Outdoor Air Object Name
  ,                                       !- Standards Building Type
  living;                                 !- Standards Space Type

OS:Space,
  {3c1227d5-f0b3-4562-9cda-56566765005f}, !- Handle
  living space|story 2,                   !- Name
  {82a530a0-1b72-4fb2-8783-eb1d2218bb8b}, !- Space Type Name
  ,                                       !- Default Construction Set Name
  ,                                       !- Default Schedule Set Name
  -0,                                     !- Direction of Relative North {deg}
  0,                                      !- X Origin {m}
  0,                                      !- Y Origin {m}
  3.3528,                                 !- Z Origin {m}
  ,                                       !- Building Story Name
  {9c86495a-c2f5-458b-9307-56e4f90a4c92}, !- Thermal Zone Name
  ,                                       !- Part of Total Floor Area
  ,                                       !- Design Specification Outdoor Air Object Name
  {24bfc0d8-e7dc-492b-88c8-66355d13a35a}; !- Building Unit Name

OS:Surface,
  {b12e3d22-5bff-4677-ad84-4500e61dba48}, !- Handle
  Surface 7,                              !- Name
  Floor,                                  !- Surface Type
  ,                                       !- Construction Name
  {3c1227d5-f0b3-4562-9cda-56566765005f}, !- Space Name
  Surface,                                !- Outside Boundary Condition
  {1dc85098-d3e5-4ff5-be42-e6d5222462e6}, !- Outside Boundary Condition Object
  NoSun,                                  !- Sun Exposure
  NoWind,                                 !- Wind Exposure
  ,                                       !- View Factor to Ground
  ,                                       !- Number of Vertices
  0, 0, -4.44089209850063e-016,           !- X,Y,Z Vertex 1 {m}
  0, 6.81553519541936, -4.44089209850063e-016, !- X,Y,Z Vertex 2 {m}
  13.6310703908387, 6.81553519541936, -4.44089209850063e-016, !- X,Y,Z Vertex 3 {m}
  13.6310703908387, 0, -4.44089209850063e-016; !- X,Y,Z Vertex 4 {m}

OS:Surface,
  {24988875-91bf-414b-a7da-c75f72ffc650}, !- Handle
  Surface 8,                              !- Name
  Wall,                                   !- Surface Type
  ,                                       !- Construction Name
  {3c1227d5-f0b3-4562-9cda-56566765005f}, !- Space Name
  Outdoors,                               !- Outside Boundary Condition
  ,                                       !- Outside Boundary Condition Object
  SunExposed,                             !- Sun Exposure
  WindExposed,                            !- Wind Exposure
  ,                                       !- View Factor to Ground
  ,                                       !- Number of Vertices
  0, 6.81553519541936, 2.4384,            !- X,Y,Z Vertex 1 {m}
  0, 6.81553519541936, -4.44089209850063e-016, !- X,Y,Z Vertex 2 {m}
  0, 0, -4.44089209850063e-016,           !- X,Y,Z Vertex 3 {m}
  0, 0, 2.4384;                           !- X,Y,Z Vertex 4 {m}

OS:Surface,
  {582b9589-b4fb-4e8f-b6da-2243598e7381}, !- Handle
  Surface 9,                              !- Name
  Wall,                                   !- Surface Type
  ,                                       !- Construction Name
  {3c1227d5-f0b3-4562-9cda-56566765005f}, !- Space Name
  Outdoors,                               !- Outside Boundary Condition
  ,                                       !- Outside Boundary Condition Object
  SunExposed,                             !- Sun Exposure
  WindExposed,                            !- Wind Exposure
  ,                                       !- View Factor to Ground
  ,                                       !- Number of Vertices
  13.6310703908387, 6.81553519541936, 2.4384, !- X,Y,Z Vertex 1 {m}
  13.6310703908387, 6.81553519541936, -4.44089209850063e-016, !- X,Y,Z Vertex 2 {m}
  0, 6.81553519541936, -4.44089209850063e-016, !- X,Y,Z Vertex 3 {m}
  0, 6.81553519541936, 2.4384;            !- X,Y,Z Vertex 4 {m}

OS:Surface,
  {3c84404d-3b5e-4d1a-8590-2b96ae08d6f4}, !- Handle
  Surface 10,                             !- Name
  Wall,                                   !- Surface Type
  ,                                       !- Construction Name
  {3c1227d5-f0b3-4562-9cda-56566765005f}, !- Space Name
  Outdoors,                               !- Outside Boundary Condition
  ,                                       !- Outside Boundary Condition Object
  SunExposed,                             !- Sun Exposure
  WindExposed,                            !- Wind Exposure
  ,                                       !- View Factor to Ground
  ,                                       !- Number of Vertices
  13.6310703908387, 0, 2.4384,            !- X,Y,Z Vertex 1 {m}
  13.6310703908387, 0, -4.44089209850063e-016, !- X,Y,Z Vertex 2 {m}
  13.6310703908387, 6.81553519541936, -4.44089209850063e-016, !- X,Y,Z Vertex 3 {m}
  13.6310703908387, 6.81553519541936, 2.4384; !- X,Y,Z Vertex 4 {m}

OS:Surface,
  {9afbee18-47d3-41c1-8ac5-ecd0e805a6eb}, !- Handle
  Surface 11,                             !- Name
  Wall,                                   !- Surface Type
  ,                                       !- Construction Name
  {3c1227d5-f0b3-4562-9cda-56566765005f}, !- Space Name
  Outdoors,                               !- Outside Boundary Condition
  ,                                       !- Outside Boundary Condition Object
  SunExposed,                             !- Sun Exposure
  WindExposed,                            !- Wind Exposure
  ,                                       !- View Factor to Ground
  ,                                       !- Number of Vertices
  0, 0, 2.4384,                           !- X,Y,Z Vertex 1 {m}
  0, 0, -4.44089209850063e-016,           !- X,Y,Z Vertex 2 {m}
  13.6310703908387, 0, -4.44089209850063e-016, !- X,Y,Z Vertex 3 {m}
  13.6310703908387, 0, 2.4384;            !- X,Y,Z Vertex 4 {m}

OS:Surface,
  {f8b88422-98ae-49a6-9de7-919f243570ce}, !- Handle
  Surface 12,                             !- Name
  RoofCeiling,                            !- Surface Type
  ,                                       !- Construction Name
  {3c1227d5-f0b3-4562-9cda-56566765005f}, !- Space Name
  Surface,                                !- Outside Boundary Condition
  {42c02c06-62e9-45b6-959b-518670667bb1}, !- Outside Boundary Condition Object
  NoSun,                                  !- Sun Exposure
  NoWind,                                 !- Wind Exposure
  ,                                       !- View Factor to Ground
  ,                                       !- Number of Vertices
  13.6310703908387, 0, 2.4384,            !- X,Y,Z Vertex 1 {m}
  13.6310703908387, 6.81553519541936, 2.4384, !- X,Y,Z Vertex 2 {m}
  0, 6.81553519541936, 2.4384,            !- X,Y,Z Vertex 3 {m}
  0, 0, 2.4384;                           !- X,Y,Z Vertex 4 {m}

OS:Surface,
  {42c02c06-62e9-45b6-959b-518670667bb1}, !- Handle
  Surface 13,                             !- Name
  Floor,                                  !- Surface Type
  ,                                       !- Construction Name
  {b811f828-a435-45ff-a39e-ad8764312554}, !- Space Name
  Surface,                                !- Outside Boundary Condition
  {f8b88422-98ae-49a6-9de7-919f243570ce}, !- Outside Boundary Condition Object
  NoSun,                                  !- Sun Exposure
  NoWind,                                 !- Wind Exposure
  ,                                       !- View Factor to Ground
  ,                                       !- Number of Vertices
  0, 6.81553519541936, 0,                 !- X,Y,Z Vertex 1 {m}
  13.6310703908387, 6.81553519541936, 0,  !- X,Y,Z Vertex 2 {m}
  13.6310703908387, 0, 0,                 !- X,Y,Z Vertex 3 {m}
  0, 0, 0;                                !- X,Y,Z Vertex 4 {m}

OS:Surface,
  {a967b0ff-c3a3-4fab-8f8e-643674c4c1ff}, !- Handle
  Surface 14,                             !- Name
  RoofCeiling,                            !- Surface Type
  ,                                       !- Construction Name
  {b811f828-a435-45ff-a39e-ad8764312554}, !- Space Name
  Outdoors,                               !- Outside Boundary Condition
  ,                                       !- Outside Boundary Condition Object
  SunExposed,                             !- Sun Exposure
  WindExposed,                            !- Wind Exposure
  ,                                       !- View Factor to Ground
  ,                                       !- Number of Vertices
  13.6310703908387, 3.40776759770968, 1.70388379885484, !- X,Y,Z Vertex 1 {m}
  0, 3.40776759770968, 1.70388379885484,  !- X,Y,Z Vertex 2 {m}
  0, 0, 0,                                !- X,Y,Z Vertex 3 {m}
  13.6310703908387, 0, 0;                 !- X,Y,Z Vertex 4 {m}

OS:Surface,
  {91204b5f-aa76-45a9-888b-7d0adc4911d0}, !- Handle
  Surface 15,                             !- Name
  RoofCeiling,                            !- Surface Type
  ,                                       !- Construction Name
  {b811f828-a435-45ff-a39e-ad8764312554}, !- Space Name
  Outdoors,                               !- Outside Boundary Condition
  ,                                       !- Outside Boundary Condition Object
  SunExposed,                             !- Sun Exposure
  WindExposed,                            !- Wind Exposure
  ,                                       !- View Factor to Ground
  ,                                       !- Number of Vertices
  0, 3.40776759770968, 1.70388379885484,  !- X,Y,Z Vertex 1 {m}
  13.6310703908387, 3.40776759770968, 1.70388379885484, !- X,Y,Z Vertex 2 {m}
  13.6310703908387, 6.81553519541936, 0,  !- X,Y,Z Vertex 3 {m}
  0, 6.81553519541936, 0;                 !- X,Y,Z Vertex 4 {m}

OS:Surface,
  {45532fea-628b-4e60-953d-7dcee53c083b}, !- Handle
  Surface 16,                             !- Name
  Wall,                                   !- Surface Type
  ,                                       !- Construction Name
  {b811f828-a435-45ff-a39e-ad8764312554}, !- Space Name
  Outdoors,                               !- Outside Boundary Condition
  ,                                       !- Outside Boundary Condition Object
  SunExposed,                             !- Sun Exposure
  WindExposed,                            !- Wind Exposure
  ,                                       !- View Factor to Ground
  ,                                       !- Number of Vertices
  0, 3.40776759770968, 1.70388379885484,  !- X,Y,Z Vertex 1 {m}
  0, 6.81553519541936, 0,                 !- X,Y,Z Vertex 2 {m}
  0, 0, 0;                                !- X,Y,Z Vertex 3 {m}

OS:Surface,
  {ff11f899-2c24-4bca-9e3b-cc2f9d4204f9}, !- Handle
  Surface 17,                             !- Name
  Wall,                                   !- Surface Type
  ,                                       !- Construction Name
  {b811f828-a435-45ff-a39e-ad8764312554}, !- Space Name
  Outdoors,                               !- Outside Boundary Condition
  ,                                       !- Outside Boundary Condition Object
  SunExposed,                             !- Sun Exposure
  WindExposed,                            !- Wind Exposure
  ,                                       !- View Factor to Ground
  ,                                       !- Number of Vertices
  13.6310703908387, 3.40776759770968, 1.70388379885484, !- X,Y,Z Vertex 1 {m}
  13.6310703908387, 0, 0,                 !- X,Y,Z Vertex 2 {m}
  13.6310703908387, 6.81553519541936, 0;  !- X,Y,Z Vertex 3 {m}

OS:Space,
  {b811f828-a435-45ff-a39e-ad8764312554}, !- Handle
  unfinished attic space,                 !- Name
  {9a204c8f-9169-451f-81e0-90f13db74395}, !- Space Type Name
  ,                                       !- Default Construction Set Name
  ,                                       !- Default Schedule Set Name
  -0,                                     !- Direction of Relative North {deg}
  0,                                      !- X Origin {m}
  0,                                      !- Y Origin {m}
  5.7912,                                 !- Z Origin {m}
  ,                                       !- Building Story Name
  {1bc891c5-8f28-478e-9a65-2ecbafa3634c}; !- Thermal Zone Name

OS:ThermalZone,
  {1bc891c5-8f28-478e-9a65-2ecbafa3634c}, !- Handle
  unfinished attic zone,                  !- Name
  ,                                       !- Multiplier
  ,                                       !- Ceiling Height {m}
  ,                                       !- Volume {m3}