!- NOTE: Auto-generated from /test/osw_files/SFD_2000sqft_2story_SL_GRG_FR_3Beds_2Baths_Denver_Furnace_CentralAC.osw

OS:Version,
  {658e7271-341c-4cd2-a8ab-af5833c5ff00}, !- Handle
  2.7.0;                                  !- Version Identifier

OS:Building,
  {85748439-6a24-4ef5-9dd9-8d170fd2552c}, !- Handle
  Building 1,                             !- Name
  ,                                       !- Building Sector Type
  0,                                      !- North Axis {deg}
  ,                                       !- Nominal Floor to Floor Height {m}
  ,                                       !- Space Type Name
  ,                                       !- Default Construction Set Name
  ,                                       !- Default Schedule Set Name
  3,                                      !- Standards Number of Stories
  3,                                      !- Standards Number of Above Ground Stories
  ,                                       !- Standards Template
  singlefamilydetached,                   !- Standards Building Type
  1;                                      !- Standards Number of Living Units

OS:Facility,
  {4ef57de1-671b-43f5-ba30-3b9190533610}; !- Handle

OS:Site,
  {91a086f0-4b95-47bc-a7b0-fe53a41fe5a5}, !- Handle
  Denver Intl Ap_CO_USA,                  !- Name
  39.83,                                  !- Latitude {deg}
  -104.65,                                !- Longitude {deg}
  -7,                                     !- Time Zone {hr}
  1650,                                   !- Elevation {m}
  ;                                       !- Terrain

OS:SimulationControl,
  {0b854488-bcdc-4bf4-81b2-2563fc81d8be}, !- Handle
  ,                                       !- Do Zone Sizing Calculation
  ,                                       !- Do System Sizing Calculation
  ,                                       !- Do Plant Sizing Calculation
  No;                                     !- Run Simulation for Sizing Periods

OS:Sizing:Parameters,
  {6b6d72c9-1dad-44ce-886a-f28c2b64e616}, !- Handle
  1.25,                                   !- Heating Sizing Factor
  1.15;                                   !- Cooling Sizing Factor

OS:Timestep,
  {a0416877-56ef-4820-94c9-919667d36790}, !- Handle
  6;                                      !- Number of Timesteps per Hour

OS:ShadowCalculation,
  {5cf1a986-c39c-42e0-9d84-f2aee35c9aac}, !- Handle
  20,                                     !- Calculation Frequency
  200;                                    !- Maximum Figures in Shadow Overlap Calculations

OS:HeatBalanceAlgorithm,
  {0e2b2182-57e1-459d-8d3f-6bf57035592b}, !- Handle
  ConductionTransferFunction,             !- Algorithm
  200;                                    !- Surface Temperature Upper Limit {C}

OS:RunPeriod,
  {0deffb0a-2a47-4c9d-a3d7-639374be2dbe}, !- Handle
  Run Period 1,                           !- Name
  1,                                      !- Begin Month
  1,                                      !- Begin Day of Month
  12,                                     !- End Month
  31,                                     !- End Day of Month
  ,                                       !- Use Weather File Holidays and Special Days
  ,                                       !- Use Weather File Daylight Saving Period
  ,                                       !- Apply Weekend Holiday Rule
  ,                                       !- Use Weather File Rain Indicators
  ,                                       !- Use Weather File Snow Indicators
  ;                                       !- Number of Times Runperiod to be Repeated

OS:LifeCycleCost:Parameters,
  {2d7cd302-fd76-48cd-8111-e9f8fbaf72f7}, !- Handle
  ,                                       !- Analysis Type
  ,                                       !- Discounting Convention
  ,                                       !- Inflation Approach
  ,                                       !- Real Discount Rate
  ,                                       !- Nominal Discount Rate
  ,                                       !- Inflation
  ,                                       !- Base Date Month
  ,                                       !- Base Date Year
  ,                                       !- Service Date Month
  ,                                       !- Service Date Year
  ;                                       !- Length of Study Period in Years

OS:SurfaceConvectionAlgorithm:Outside,
  {dac6268a-0110-4e9e-a50d-f15dbd25a4c9}, !- Handle
  DOE-2;                                  !- Algorithm

OS:SurfaceConvectionAlgorithm:Inside,
  {64435f3d-2da4-479a-826d-5372924f08e4}, !- Handle
  TARP;                                   !- Algorithm

OS:ZoneCapacitanceMultiplier:ResearchSpecial,
  {cbc49fd5-d756-4298-858e-525c14dcd9f8}, !- Handle
  ,                                       !- Temperature Capacity Multiplier
  15,                                     !- Humidity Capacity Multiplier
  ;                                       !- Carbon Dioxide Capacity Multiplier

OS:ThermalZone,
  {3eaad612-3f9c-4e4d-ac33-799ad60be34d}, !- Handle
  living zone,                            !- Name
  ,                                       !- Multiplier
  ,                                       !- Ceiling Height {m}
  ,                                       !- Volume {m3}
  ,                                       !- Floor Area {m2}
  ,                                       !- Zone Inside Convection Algorithm
  ,                                       !- Zone Outside Convection Algorithm
  ,                                       !- Zone Conditioning Equipment List Name
  {4d58cfc9-21a8-4c60-954c-f075a883358a}, !- Zone Air Inlet Port List
  {513b3fc2-cdcb-4777-aeff-0ac5baaca02f}, !- Zone Air Exhaust Port List
  {a5cddc92-90a2-4075-9063-247387d4dcd0}, !- Zone Air Node Name
  {2ffd1a90-ad03-4e7f-8efc-3d28502464c2}, !- Zone Return Air Port List
  ,                                       !- Primary Daylighting Control Name
  ,                                       !- Fraction of Zone Controlled by Primary Daylighting Control
  ,                                       !- Secondary Daylighting Control Name
  ,                                       !- Fraction of Zone Controlled by Secondary Daylighting Control
  ,                                       !- Illuminance Map Name
  ,                                       !- Group Rendering Name
  {e7f3bb19-c995-411d-9f45-123a06f69895}, !- Thermostat Name
  No;                                     !- Use Ideal Air Loads

OS:Node,
  {8c32ddd4-e242-49fc-8004-9f442df11580}, !- Handle
  Node 1,                                 !- Name
  {a5cddc92-90a2-4075-9063-247387d4dcd0}, !- Inlet Port
  ;                                       !- Outlet Port

OS:Connection,
  {a5cddc92-90a2-4075-9063-247387d4dcd0}, !- Handle
  {7ac94b68-2657-42fe-858c-9921a2141016}, !- Name
  {3eaad612-3f9c-4e4d-ac33-799ad60be34d}, !- Source Object
  11,                                     !- Outlet Port
  {8c32ddd4-e242-49fc-8004-9f442df11580}, !- Target Object
  2;                                      !- Inlet Port

OS:PortList,
  {4d58cfc9-21a8-4c60-954c-f075a883358a}, !- Handle
  {bd85b586-4c91-4c4d-ac14-0104ce9992b7}, !- Name
  {3eaad612-3f9c-4e4d-ac33-799ad60be34d}, !- HVAC Component
  {61a76ae8-16d0-4347-8812-24ec98d335cc}, !- Port 1
  {fb5ce5f6-2cf1-4fdb-bdd1-51212477bad8}; !- Port 2

OS:PortList,
  {513b3fc2-cdcb-4777-aeff-0ac5baaca02f}, !- Handle
  {1b0da04d-f48f-4679-92bd-05cd519bc09f}, !- Name
  {3eaad612-3f9c-4e4d-ac33-799ad60be34d}; !- HVAC Component

OS:PortList,
  {2ffd1a90-ad03-4e7f-8efc-3d28502464c2}, !- Handle
  {ac653923-046d-46b1-85a3-a43ff5c58c40}, !- Name
  {3eaad612-3f9c-4e4d-ac33-799ad60be34d}, !- HVAC Component
  {f80a6d6c-c149-410d-bec7-02f9e25cefad}, !- Port 1
  {7ecdffa0-706e-445d-af47-ed90437b6fdc}; !- Port 2

OS:Sizing:Zone,
  {2f81b2f4-51c5-4cb3-b837-e1843ac1c04f}, !- Handle
  {3eaad612-3f9c-4e4d-ac33-799ad60be34d}, !- Zone or ZoneList Name
  SupplyAirTemperature,                   !- Zone Cooling Design Supply Air Temperature Input Method
  14,                                     !- Zone Cooling Design Supply Air Temperature {C}
  11.11,                                  !- Zone Cooling Design Supply Air Temperature Difference {deltaC}
  SupplyAirTemperature,                   !- Zone Heating Design Supply Air Temperature Input Method
  40,                                     !- Zone Heating Design Supply Air Temperature {C}
  11.11,                                  !- Zone Heating Design Supply Air Temperature Difference {deltaC}
  0.0085,                                 !- Zone Cooling Design Supply Air Humidity Ratio {kg-H2O/kg-air}
  0.008,                                  !- Zone Heating Design Supply Air Humidity Ratio {kg-H2O/kg-air}
  ,                                       !- Zone Heating Sizing Factor
  ,                                       !- Zone Cooling Sizing Factor
  DesignDay,                              !- Cooling Design Air Flow Method
  ,                                       !- Cooling Design Air Flow Rate {m3/s}
  ,                                       !- Cooling Minimum Air Flow per Zone Floor Area {m3/s-m2}
  ,                                       !- Cooling Minimum Air Flow {m3/s}
  ,                                       !- Cooling Minimum Air Flow Fraction
  DesignDay,                              !- Heating Design Air Flow Method
  ,                                       !- Heating Design Air Flow Rate {m3/s}
  ,                                       !- Heating Maximum Air Flow per Zone Floor Area {m3/s-m2}
  ,                                       !- Heating Maximum Air Flow {m3/s}
  ,                                       !- Heating Maximum Air Flow Fraction
  ,                                       !- Design Zone Air Distribution Effectiveness in Cooling Mode
  ,                                       !- Design Zone Air Distribution Effectiveness in Heating Mode
  No,                                     !- Account for Dedicated Outdoor Air System
  NeutralSupplyAir,                       !- Dedicated Outdoor Air System Control Strategy
  autosize,                               !- Dedicated Outdoor Air Low Setpoint Temperature for Design {C}
  autosize;                               !- Dedicated Outdoor Air High Setpoint Temperature for Design {C}

OS:ZoneHVAC:EquipmentList,
  {5c528cbd-eb8a-4ca6-a4b9-4cf1972a3bd4}, !- Handle
  Zone HVAC Equipment List 1,             !- Name
  {3eaad612-3f9c-4e4d-ac33-799ad60be34d}, !- Thermal Zone
  SequentialLoad,                         !- Load Distribution Scheme
  {bec12da6-b9f5-4009-ac72-ca95fe08cbae}, !- Zone Equipment 1
  1,                                      !- Zone Equipment Cooling Sequence 1
  1,                                      !- Zone Equipment Heating or No-Load Sequence 1
  {06e66ace-533e-4414-b02f-52695dbbb39e}, !- Zone Equipment 2
  2,                                      !- Zone Equipment Cooling Sequence 2
  2;                                      !- Zone Equipment Heating or No-Load Sequence 2

OS:ThermalZone,
  {fbe9b4b9-9600-44e4-b6d2-1d6124fcc127}, !- Handle
  garage zone,                            !- Name
  ,                                       !- Multiplier
  ,                                       !- Ceiling Height {m}
  ,                                       !- Volume {m3}
  ,                                       !- Floor Area {m2}
  ,                                       !- Zone Inside Convection Algorithm
  ,                                       !- Zone Outside Convection Algorithm
  ,                                       !- Zone Conditioning Equipment List Name
  {c665242b-5818-4128-9655-4a61d5a73901}, !- Zone Air Inlet Port List
  {41fbc437-8167-45a6-9704-618bc8b7c739}, !- Zone Air Exhaust Port List
  {32a6595d-48d2-4fd0-82d9-5f47d9fd4c5c}, !- Zone Air Node Name
  {1e6ab8b0-3498-4799-8fa5-7828b0fbd206}, !- Zone Return Air Port List
  ,                                       !- Primary Daylighting Control Name
  ,                                       !- Fraction of Zone Controlled by Primary Daylighting Control
  ,                                       !- Secondary Daylighting Control Name
  ,                                       !- Fraction of Zone Controlled by Secondary Daylighting Control
  ,                                       !- Illuminance Map Name
  ,                                       !- Group Rendering Name
  ,                                       !- Thermostat Name
  No;                                     !- Use Ideal Air Loads

OS:Node,
  {82ca085e-3b23-4126-9f2f-59592a7b65cc}, !- Handle
  Node 2,                                 !- Name
  {32a6595d-48d2-4fd0-82d9-5f47d9fd4c5c}, !- Inlet Port
  ;                                       !- Outlet Port

OS:Connection,
  {32a6595d-48d2-4fd0-82d9-5f47d9fd4c5c}, !- Handle
  {5d8e3049-8523-474f-9745-710c71dfa7df}, !- Name
  {fbe9b4b9-9600-44e4-b6d2-1d6124fcc127}, !- Source Object
  11,                                     !- Outlet Port
  {82ca085e-3b23-4126-9f2f-59592a7b65cc}, !- Target Object
  2;                                      !- Inlet Port

OS:PortList,
  {c665242b-5818-4128-9655-4a61d5a73901}, !- Handle
  {ab144497-91dd-4274-8dc7-5d47c0d6bb53}, !- Name
  {fbe9b4b9-9600-44e4-b6d2-1d6124fcc127}; !- HVAC Component

OS:PortList,
  {41fbc437-8167-45a6-9704-618bc8b7c739}, !- Handle
  {e209a382-aa13-43f0-baef-3b03ec72bcfe}, !- Name
  {fbe9b4b9-9600-44e4-b6d2-1d6124fcc127}; !- HVAC Component

OS:PortList,
  {1e6ab8b0-3498-4799-8fa5-7828b0fbd206}, !- Handle
  {f0a49258-e0d1-4ada-84d8-011163ce1793}, !- Name
  {fbe9b4b9-9600-44e4-b6d2-1d6124fcc127}; !- HVAC Component

OS:Sizing:Zone,
  {9f453198-1264-466f-bd14-881eed8d726c}, !- Handle
  {fbe9b4b9-9600-44e4-b6d2-1d6124fcc127}, !- Zone or ZoneList Name
  SupplyAirTemperature,                   !- Zone Cooling Design Supply Air Temperature Input Method
  14,                                     !- Zone Cooling Design Supply Air Temperature {C}
  11.11,                                  !- Zone Cooling Design Supply Air Temperature Difference {deltaC}
  SupplyAirTemperature,                   !- Zone Heating Design Supply Air Temperature Input Method
  40,                                     !- Zone Heating Design Supply Air Temperature {C}
  11.11,                                  !- Zone Heating Design Supply Air Temperature Difference {deltaC}
  0.0085,                                 !- Zone Cooling Design Supply Air Humidity Ratio {kg-H2O/kg-air}
  0.008,                                  !- Zone Heating Design Supply Air Humidity Ratio {kg-H2O/kg-air}
  ,                                       !- Zone Heating Sizing Factor
  ,                                       !- Zone Cooling Sizing Factor
  DesignDay,                              !- Cooling Design Air Flow Method
  ,                                       !- Cooling Design Air Flow Rate {m3/s}
  ,                                       !- Cooling Minimum Air Flow per Zone Floor Area {m3/s-m2}
  ,                                       !- Cooling Minimum Air Flow {m3/s}
  ,                                       !- Cooling Minimum Air Flow Fraction
  DesignDay,                              !- Heating Design Air Flow Method
  ,                                       !- Heating Design Air Flow Rate {m3/s}
  ,                                       !- Heating Maximum Air Flow per Zone Floor Area {m3/s-m2}
  ,                                       !- Heating Maximum Air Flow {m3/s}
  ,                                       !- Heating Maximum Air Flow Fraction
  ,                                       !- Design Zone Air Distribution Effectiveness in Cooling Mode
  ,                                       !- Design Zone Air Distribution Effectiveness in Heating Mode
  No,                                     !- Account for Dedicated Outdoor Air System
  NeutralSupplyAir,                       !- Dedicated Outdoor Air System Control Strategy
  autosize,                               !- Dedicated Outdoor Air Low Setpoint Temperature for Design {C}
  autosize;                               !- Dedicated Outdoor Air High Setpoint Temperature for Design {C}

OS:ZoneHVAC:EquipmentList,
  {65049843-1a73-4b24-b026-00f6fd4495f3}, !- Handle
  Zone HVAC Equipment List 2,             !- Name
  {fbe9b4b9-9600-44e4-b6d2-1d6124fcc127}; !- Thermal Zone

OS:Space,
  {5e0eca61-038a-4233-8947-41314eae7512}, !- Handle
  garage space,                           !- Name
  {38cbad44-9790-457e-9dad-3d9f1c3c3201}, !- Space Type Name
  ,                                       !- Default Construction Set Name
  ,                                       !- Default Schedule Set Name
  -0,                                     !- Direction of Relative North {deg}
  0,                                      !- X Origin {m}
  0,                                      !- Y Origin {m}
  0,                                      !- Z Origin {m}
  ,                                       !- Building Story Name
  {fbe9b4b9-9600-44e4-b6d2-1d6124fcc127}; !- Thermal Zone Name

OS:Surface,
  {4d12f42b-edc6-4a27-a617-387f8381688a}, !- Handle
  Surface 1,                              !- Name
  Floor,                                  !- Surface Type
  ,                                       !- Construction Name
  {5e0eca61-038a-4233-8947-41314eae7512}, !- Space Name
  Foundation,                             !- Outside Boundary Condition
  ,                                       !- Outside Boundary Condition Object
  NoSun,                                  !- Sun Exposure
  NoWind,                                 !- Wind Exposure
  ,                                       !- View Factor to Ground
  ,                                       !- Number of Vertices
  7.1330661888875, -3.048, 0,             !- X,Y,Z Vertex 1 {m}
  7.1330661888875, 3.048, 0,              !- X,Y,Z Vertex 2 {m}
  10.7906661888875, 3.048, 0,             !- X,Y,Z Vertex 3 {m}
  10.7906661888875, -3.048, 0;            !- X,Y,Z Vertex 4 {m}

OS:Surface,
  {81d09b04-ec7d-4a22-9400-efecdd34ccb8}, !- Handle
  Surface 2,                              !- Name
  Wall,                                   !- Surface Type
  ,                                       !- Construction Name
  {5e0eca61-038a-4233-8947-41314eae7512}, !- Space Name
  Surface,                                !- Outside Boundary Condition
  {d16cf3e8-243d-417c-b388-5e64ce8e1889}, !- Outside Boundary Condition Object
  NoSun,                                  !- Sun Exposure
  NoWind,                                 !- Wind Exposure
  ,                                       !- View Factor to Ground
  ,                                       !- Number of Vertices
  7.1330661888875, 3.048, 2.4384,         !- X,Y,Z Vertex 1 {m}
  7.1330661888875, 3.048, 0,              !- X,Y,Z Vertex 2 {m}
  7.1330661888875, 0, 0,                  !- X,Y,Z Vertex 3 {m}
  7.1330661888875, 0, 2.4384;             !- X,Y,Z Vertex 4 {m}

OS:Surface,
  {2fd8bf61-fb7f-41b0-9ff1-3034e6f7b6ef}, !- Handle
  Surface 3,                              !- Name
  Wall,                                   !- Surface Type
  ,                                       !- Construction Name
  {5e0eca61-038a-4233-8947-41314eae7512}, !- Space Name
  Surface,                                !- Outside Boundary Condition
  {e6efca9e-7165-48be-b593-a41b0c2b61cf}, !- Outside Boundary Condition Object
  NoSun,                                  !- Sun Exposure
  NoWind,                                 !- Wind Exposure
  ,                                       !- View Factor to Ground
  ,                                       !- Number of Vertices
  10.7906661888875, 3.048, 2.4384,        !- X,Y,Z Vertex 1 {m}
  10.7906661888875, 3.048, 0,             !- X,Y,Z Vertex 2 {m}
  7.1330661888875, 3.048, 0,              !- X,Y,Z Vertex 3 {m}
  7.1330661888875, 3.048, 2.4384;         !- X,Y,Z Vertex 4 {m}

OS:Surface,
  {24dc6115-25f6-4352-9f43-8f76f0aa7f5b}, !- Handle
  Surface 4,                              !- Name
  Wall,                                   !- Surface Type
  ,                                       !- Construction Name
  {5e0eca61-038a-4233-8947-41314eae7512}, !- Space Name
  Outdoors,                               !- Outside Boundary Condition
  ,                                       !- Outside Boundary Condition Object
  SunExposed,                             !- Sun Exposure
  WindExposed,                            !- Wind Exposure
  ,                                       !- View Factor to Ground
  ,                                       !- Number of Vertices
  10.7906661888875, -3.048, 2.4384,       !- X,Y,Z Vertex 1 {m}
  10.7906661888875, -3.048, 0,            !- X,Y,Z Vertex 2 {m}
  10.7906661888875, 3.048, 0,             !- X,Y,Z Vertex 3 {m}
  10.7906661888875, 3.048, 2.4384;        !- X,Y,Z Vertex 4 {m}

OS:Surface,
  {6360ce33-a214-4bcb-a804-4ad9f2f73dfd}, !- Handle
  Surface 5,                              !- Name
  Wall,                                   !- Surface Type
  ,                                       !- Construction Name
  {5e0eca61-038a-4233-8947-41314eae7512}, !- Space Name
  Outdoors,                               !- Outside Boundary Condition
  ,                                       !- Outside Boundary Condition Object
  SunExposed,                             !- Sun Exposure
  WindExposed,                            !- Wind Exposure
  ,                                       !- View Factor to Ground
  ,                                       !- Number of Vertices
  7.1330661888875, -3.048, 2.4384,        !- X,Y,Z Vertex 1 {m}
  7.1330661888875, -3.048, 0,             !- X,Y,Z Vertex 2 {m}
  10.7906661888875, -3.048, 0,            !- X,Y,Z Vertex 3 {m}
  10.7906661888875, -3.048, 2.4384;       !- X,Y,Z Vertex 4 {m}

OS:Surface,
  {eb98ae5b-4360-442e-b145-ddd9e75e7a78}, !- Handle
  Surface 6,                              !- Name
  RoofCeiling,                            !- Surface Type
  ,                                       !- Construction Name
  {5e0eca61-038a-4233-8947-41314eae7512}, !- Space Name
  Surface,                                !- Outside Boundary Condition
  {7400d35d-d0b9-4c78-bf01-3074a82a8468}, !- Outside Boundary Condition Object
  NoSun,                                  !- Sun Exposure
  NoWind,                                 !- Wind Exposure
  ,                                       !- View Factor to Ground
  ,                                       !- Number of Vertices
  10.7906661888875, -3.048, 2.4384,       !- X,Y,Z Vertex 1 {m}
  10.7906661888875, 3.048, 2.4384,        !- X,Y,Z Vertex 2 {m}
  7.1330661888875, 3.048, 2.4384,         !- X,Y,Z Vertex 3 {m}
  7.1330661888875, -3.048, 2.4384;        !- X,Y,Z Vertex 4 {m}

OS:SpaceType,
  {38cbad44-9790-457e-9dad-3d9f1c3c3201}, !- Handle
  Space Type 1,                           !- Name
  ,                                       !- Default Construction Set Name
  ,                                       !- Default Schedule Set Name
  ,                                       !- Group Rendering Name
  ,                                       !- Design Specification Outdoor Air Object Name
  ,                                       !- Standards Template
  ,                                       !- Standards Building Type
  garage;                                 !- Standards Space Type

OS:Space,
  {448b5c3d-72ed-4391-acdb-2c982e1a7054}, !- Handle
  living space,                           !- Name
  {00c50d92-4506-4426-a664-e51b6a241a04}, !- Space Type Name
  ,                                       !- Default Construction Set Name
  ,                                       !- Default Schedule Set Name
  -0,                                     !- Direction of Relative North {deg}
  0,                                      !- X Origin {m}
  0,                                      !- Y Origin {m}
  0,                                      !- Z Origin {m}
  ,                                       !- Building Story Name
  {3eaad612-3f9c-4e4d-ac33-799ad60be34d}, !- Thermal Zone Name
  ,                                       !- Part of Total Floor Area
  ,                                       !- Design Specification Outdoor Air Object Name
  {4b64d313-1930-4622-9922-424c8ba84bda}; !- Building Unit Name

OS:Surface,
  {b6ceab74-973f-4806-b465-710ad0a090f0}, !- Handle
  Surface 7,                              !- Name
  Floor,                                  !- Surface Type
  ,                                       !- Construction Name
  {448b5c3d-72ed-4391-acdb-2c982e1a7054}, !- Space Name
  Foundation,                             !- Outside Boundary Condition
  ,                                       !- Outside Boundary Condition Object
  NoSun,                                  !- Sun Exposure
  NoWind,                                 !- Wind Exposure
  ,                                       !- View Factor to Ground
  ,                                       !- Number of Vertices
  0, 0, 0,                                !- X,Y,Z Vertex 1 {m}
  0, 5.39533309444375, 0,                 !- X,Y,Z Vertex 2 {m}
  10.7906661888875, 5.39533309444375, 0,  !- X,Y,Z Vertex 3 {m}
  10.7906661888875, 3.048, 0,             !- X,Y,Z Vertex 4 {m}
  7.1330661888875, 3.048, 0,              !- X,Y,Z Vertex 5 {m}
  7.1330661888875, 0, 0;                  !- X,Y,Z Vertex 6 {m}

OS:Surface,
  {660677b1-5d8c-456c-91f7-d11fa3d31a23}, !- Handle
  Surface 8,                              !- Name
  Wall,                                   !- Surface Type
  ,                                       !- Construction Name
  {448b5c3d-72ed-4391-acdb-2c982e1a7054}, !- Space Name
  Outdoors,                               !- Outside Boundary Condition
  ,                                       !- Outside Boundary Condition Object
  SunExposed,                             !- Sun Exposure
  WindExposed,                            !- Wind Exposure
  ,                                       !- View Factor to Ground
  ,                                       !- Number of Vertices
  0, 5.39533309444375, 2.4384,            !- X,Y,Z Vertex 1 {m}
  0, 5.39533309444375, 0,                 !- X,Y,Z Vertex 2 {m}
  0, 0, 0,                                !- X,Y,Z Vertex 3 {m}
  0, 0, 2.4384;                           !- X,Y,Z Vertex 4 {m}

OS:Surface,
  {e7379fa3-fd51-4c05-b296-b5f0031890b9}, !- Handle
  Surface 9,                              !- Name
  Wall,                                   !- Surface Type
  ,                                       !- Construction Name
  {448b5c3d-72ed-4391-acdb-2c982e1a7054}, !- Space Name
  Outdoors,                               !- Outside Boundary Condition
  ,                                       !- Outside Boundary Condition Object
  SunExposed,                             !- Sun Exposure
  WindExposed,                            !- Wind Exposure
  ,                                       !- View Factor to Ground
  ,                                       !- Number of Vertices
  10.7906661888875, 5.39533309444375, 2.4384, !- X,Y,Z Vertex 1 {m}
  10.7906661888875, 5.39533309444375, 0,  !- X,Y,Z Vertex 2 {m}
  0, 5.39533309444375, 0,                 !- X,Y,Z Vertex 3 {m}
  0, 5.39533309444375, 2.4384;            !- X,Y,Z Vertex 4 {m}

OS:Surface,
  {2dcb6294-beb8-4bc2-ba34-9daad074c077}, !- Handle
  Surface 10,                             !- Name
  Wall,                                   !- Surface Type
  ,                                       !- Construction Name
  {448b5c3d-72ed-4391-acdb-2c982e1a7054}, !- Space Name
  Outdoors,                               !- Outside Boundary Condition
  ,                                       !- Outside Boundary Condition Object
  SunExposed,                             !- Sun Exposure
  WindExposed,                            !- Wind Exposure
  ,                                       !- View Factor to Ground
  ,                                       !- Number of Vertices
  10.7906661888875, 3.048, 2.4384,        !- X,Y,Z Vertex 1 {m}
  10.7906661888875, 3.048, 0,             !- X,Y,Z Vertex 2 {m}
  10.7906661888875, 5.39533309444375, 0,  !- X,Y,Z Vertex 3 {m}
  10.7906661888875, 5.39533309444375, 2.4384; !- X,Y,Z Vertex 4 {m}

OS:Surface,
  {e6efca9e-7165-48be-b593-a41b0c2b61cf}, !- Handle
  Surface 11,                             !- Name
  Wall,                                   !- Surface Type
  ,                                       !- Construction Name
  {448b5c3d-72ed-4391-acdb-2c982e1a7054}, !- Space Name
  Surface,                                !- Outside Boundary Condition
  {2fd8bf61-fb7f-41b0-9ff1-3034e6f7b6ef}, !- Outside Boundary Condition Object
  NoSun,                                  !- Sun Exposure
  NoWind,                                 !- Wind Exposure
  ,                                       !- View Factor to Ground
  ,                                       !- Number of Vertices
  7.1330661888875, 3.048, 2.4384,         !- X,Y,Z Vertex 1 {m}
  7.1330661888875, 3.048, 0,              !- X,Y,Z Vertex 2 {m}
  10.7906661888875, 3.048, 0,             !- X,Y,Z Vertex 3 {m}
  10.7906661888875, 3.048, 2.4384;        !- X,Y,Z Vertex 4 {m}

OS:Surface,
  {d16cf3e8-243d-417c-b388-5e64ce8e1889}, !- Handle
  Surface 12,                             !- Name
  Wall,                                   !- Surface Type
  ,                                       !- Construction Name
  {448b5c3d-72ed-4391-acdb-2c982e1a7054}, !- Space Name
  Surface,                                !- Outside Boundary Condition
  {81d09b04-ec7d-4a22-9400-efecdd34ccb8}, !- Outside Boundary Condition Object
  NoSun,                                  !- Sun Exposure
  NoWind,                                 !- Wind Exposure
  ,                                       !- View Factor to Ground
  ,                                       !- Number of Vertices
  7.1330661888875, 0, 2.4384,             !- X,Y,Z Vertex 1 {m}