!- NOTE: Auto-generated from /test/osw_files/SFD_2000sqft_2story_SL_GRG_UA_3Beds_2Baths_Denver_Furnace_CentralAC.osw

OS:Version,
  {43710284-faf1-4b2a-9b1e-676736623d00}, !- Handle
  2.4.1;                                  !- Version Identifier

OS:Building,
  {bf305633-c5a1-4881-9edf-ca5e1a8e1274}, !- Handle
  Building,                               !- Name
  ,                                       !- Building Sector Type
  0,                                      !- North Axis {deg}
  ,                                       !- Nominal Floor to Floor Height {m}
  ,                                       !- Space Type Name
  ,                                       !- Default Construction Set Name
  ,                                       !- Default Schedule Set Name
  2,                                      !- Standards Number of Stories
  2,                                      !- Standards Number of Above Ground Stories
  singlefamilydetached,                   !- Standards Building Type
  1;                                      !- Standards Number of Living Units

OS:YearDescription,
  {513d8dda-86cb-442a-b01c-1f7f0e0ac70e}; !- Handle

OS:SimulationControl,
  {2c487a4c-bac9-4ac5-b669-1e49d9da7c2b}, !- Handle
  ,                                       !- Do Zone Sizing Calculation
  ,                                       !- Do System Sizing Calculation
  ,                                       !- Do Plant Sizing Calculation
  No,                                     !- Run Simulation for Sizing Periods
  ;                                       !- Run Simulation for Weather File Run Periods

OS:Timestep,
  {4ebc9f1e-4707-402e-9844-67eb1ffbd522}, !- Handle
  6;                                      !- Number of Timesteps per Hour

OS:RunPeriod,
  {28df894d-6af9-4fb8-8f56-df1753344aa3}, !- Handle
  Run Period,                             !- Name
  1,                                      !- Begin Month
  1,                                      !- Begin Day of Month
  12,                                     !- End Month
  31,                                     !- End Day of Month
  ,                                       !- Use Weather File Holidays and Special Days
  ,                                       !- Use Weather File Daylight Saving Period
  ,                                       !- Apply Weekend Holiday Rule
  ,                                       !- Use Weather File Rain Indicators
  ,                                       !- Use Weather File Snow Indicators
  ;                                       !- Number of Times Runperiod to be Repeated

OS:Sizing:Parameters,
  {dde5af6f-7923-4600-a28a-7556673a0266}, !- Handle
  1.0,                                    !- Heating Sizing Factor
  1.0;                                    !- Cooling Sizing Factor

OS:ShadowCalculation,
  {ca758bea-4416-4626-9bba-3d8795c79bd6}, !- Handle
  20,                                     !- Calculation Frequency
  200;                                    !- Maximum Figures in Shadow Overlap Calculations

OS:SurfaceConvectionAlgorithm:Inside,
  {aaabfc36-718a-4ab0-b622-f186ebb45230}, !- Handle
  TARP;                                   !- Algorithm

OS:SurfaceConvectionAlgorithm:Outside,
  {9a0a9f6f-4bbd-4b12-a121-9492a1fcd7d6}, !- Handle
  DOE-2;                                  !- Algorithm

OS:HeatBalanceAlgorithm,
  {9d93e563-e1e0-46d7-9e39-d1c8aceb7212}, !- Handle
  ConductionTransferFunction,             !- Algorithm
  200;                                    !- Surface Temperature Upper Limit {C}

OS:ZoneCapacitanceMultiplier:ResearchSpecial,
  {6bfced16-b16f-47f6-8223-f7e267d75d19}, !- Handle
  ,                                       !- Temperature Capacity Multiplier
  15,                                     !- Humidity Capacity Multiplier
  ;                                       !- Carbon Dioxide Capacity Multiplier

OS:ThermalZone,
  {5cb0b02e-5f06-4e7d-93ad-79dcd2457b52}, !- Handle
  living zone,                            !- Name
  ,                                       !- Multiplier
  ,                                       !- Ceiling Height {m}
  ,                                       !- Volume {m3}
  ,                                       !- Floor Area {m2}
  ,                                       !- Zone Inside Convection Algorithm
  ,                                       !- Zone Outside Convection Algorithm
  ,                                       !- Zone Conditioning Equipment List Name
  {d49f4c7b-19bd-4c2f-9c0c-3fef4fb4da7d}, !- Zone Air Inlet Port List
  {5506837e-017c-4d69-bb20-262e87829d5f}, !- Zone Air Exhaust Port List
  {b96f2755-6e47-4866-b0ac-f8de1540d5ec}, !- Zone Air Node Name
  {d59413c2-43d3-414c-842e-adbf71e6cf75}, !- Zone Return Air Node Name
  ,                                       !- Primary Daylighting Control Name
  ,                                       !- Fraction of Zone Controlled by Primary Daylighting Control
  ,                                       !- Secondary Daylighting Control Name
  ,                                       !- Fraction of Zone Controlled by Secondary Daylighting Control
  ,                                       !- Illuminance Map Name
  ,                                       !- Group Rendering Name
  {e412b2a9-01ee-4aec-a431-00ae5d6feb09}, !- Thermostat Name
  No;                                     !- Use Ideal Air Loads

OS:Node,
  {1a73ded8-e6e1-44c8-a5c9-e01e8500f5d2}, !- Handle
  Node 1,                                 !- Name
  {b96f2755-6e47-4866-b0ac-f8de1540d5ec}, !- Inlet Port
  ;                                       !- Outlet Port

OS:Connection,
  {b96f2755-6e47-4866-b0ac-f8de1540d5ec}, !- Handle
  {a7050c68-8a77-4195-b508-ec911575c6bc}, !- Name
  {5cb0b02e-5f06-4e7d-93ad-79dcd2457b52}, !- Source Object
  11,                                     !- Outlet Port
  {1a73ded8-e6e1-44c8-a5c9-e01e8500f5d2}, !- Target Object
  2;                                      !- Inlet Port

OS:PortList,
  {d49f4c7b-19bd-4c2f-9c0c-3fef4fb4da7d}, !- Handle
  {23b7333e-2f21-41dd-9919-9e66dfbfd43b}, !- Name
  {5cb0b02e-5f06-4e7d-93ad-79dcd2457b52}, !- HVAC Component
  {8b3a9899-af69-487a-ad6a-b73721b37b97}; !- Port 1

OS:PortList,
  {5506837e-017c-4d69-bb20-262e87829d5f}, !- Handle
  {bfee126c-728e-4b49-a540-44eebeaac16a}, !- Name
  {5cb0b02e-5f06-4e7d-93ad-79dcd2457b52}; !- HVAC Component

OS:Sizing:Zone,
  {de09ba80-799d-4358-8c01-9a456681040a}, !- Handle
  {5cb0b02e-5f06-4e7d-93ad-79dcd2457b52}, !- Zone or ZoneList Name
  SupplyAirTemperature,                   !- Zone Cooling Design Supply Air Temperature Input Method
  14,                                     !- Zone Cooling Design Supply Air Temperature {C}
  11.11,                                  !- Zone Cooling Design Supply Air Temperature Difference {deltaC}
  SupplyAirTemperature,                   !- Zone Heating Design Supply Air Temperature Input Method
  40,                                     !- Zone Heating Design Supply Air Temperature {C}
  11.11,                                  !- Zone Heating Design Supply Air Temperature Difference {deltaC}
  0.0085,                                 !- Zone Cooling Design Supply Air Humidity Ratio {kg-H2O/kg-air}
  0.008,                                  !- Zone Heating Design Supply Air Humidity Ratio {kg-H2O/kg-air}
  ,                                       !- Zone Heating Sizing Factor
  ,                                       !- Zone Cooling Sizing Factor
  DesignDay,                              !- Cooling Design Air Flow Method
  ,                                       !- Cooling Design Air Flow Rate {m3/s}
  ,                                       !- Cooling Minimum Air Flow per Zone Floor Area {m3/s-m2}
  ,                                       !- Cooling Minimum Air Flow {m3/s}
  ,                                       !- Cooling Minimum Air Flow Fraction
  DesignDay,                              !- Heating Design Air Flow Method
  ,                                       !- Heating Design Air Flow Rate {m3/s}
  ,                                       !- Heating Maximum Air Flow per Zone Floor Area {m3/s-m2}
  ,                                       !- Heating Maximum Air Flow {m3/s}
  ,                                       !- Heating Maximum Air Flow Fraction
  ,                                       !- Design Zone Air Distribution Effectiveness in Cooling Mode
  ,                                       !- Design Zone Air Distribution Effectiveness in Heating Mode
  No,                                     !- Account for Dedicated Outdoor Air System
  NeutralSupplyAir,                       !- Dedicated Outdoor Air System Control Strategy
  autosize,                               !- Dedicated Outdoor Air Low Setpoint Temperature for Design {C}
  autosize;                               !- Dedicated Outdoor Air High Setpoint Temperature for Design {C}

OS:ZoneHVAC:EquipmentList,
  {4a67b32e-a5f8-4692-aa3b-45a11cefee29}, !- Handle
  Zone HVAC Equipment List 1,             !- Name
  {5cb0b02e-5f06-4e7d-93ad-79dcd2457b52}, !- Thermal Zone
  {bfe1a468-6121-420c-a369-da472a6519c4}, !- Zone Equipment 1
  1,                                      !- Zone Equipment Cooling Sequence 1
  1;                                      !- Zone Equipment Heating or No-Load Sequence 1

OS:ThermalZone,
  {3bf66cf3-b2e6-4203-9a72-053d1ec97d55}, !- Handle
  garage zone,                            !- Name
  ,                                       !- Multiplier
  ,                                       !- Ceiling Height {m}
  ,                                       !- Volume {m3}
  ,                                       !- Floor Area {m2}
  ,                                       !- Zone Inside Convection Algorithm
  ,                                       !- Zone Outside Convection Algorithm
  ,                                       !- Zone Conditioning Equipment List Name
  {3e2330c6-a603-499a-9550-8e861c350bc1}, !- Zone Air Inlet Port List
  {eb8dd541-9755-4b65-8ae8-f76b0e5eb0e9}, !- Zone Air Exhaust Port List
  {2c307f03-8a09-46d7-9b50-03d4b105518a}, !- Zone Air Node Name
  ,                                       !- Zone Return Air Node Name
  ,                                       !- Primary Daylighting Control Name
  ,                                       !- Fraction of Zone Controlled by Primary Daylighting Control
  ,                                       !- Secondary Daylighting Control Name
  ,                                       !- Fraction of Zone Controlled by Secondary Daylighting Control
  ,                                       !- Illuminance Map Name
  ,                                       !- Group Rendering Name
  ,                                       !- Thermostat Name
  No;                                     !- Use Ideal Air Loads

OS:Node,
  {c4f0196d-a2e2-481f-a393-045070cde2f3}, !- Handle
  Node 2,                                 !- Name
  {2c307f03-8a09-46d7-9b50-03d4b105518a}, !- Inlet Port
  ;                                       !- Outlet Port

OS:Connection,
  {2c307f03-8a09-46d7-9b50-03d4b105518a}, !- Handle
  {83233a3e-3875-4f3e-8ca6-72e8237ea9d2}, !- Name
  {3bf66cf3-b2e6-4203-9a72-053d1ec97d55}, !- Source Object
  11,                                     !- Outlet Port
  {c4f0196d-a2e2-481f-a393-045070cde2f3}, !- Target Object
  2;                                      !- Inlet Port

OS:PortList,
  {3e2330c6-a603-499a-9550-8e861c350bc1}, !- Handle
  {ac343402-df0a-4b25-aac4-63d7a4516942}, !- Name
  {3bf66cf3-b2e6-4203-9a72-053d1ec97d55}; !- HVAC Component

OS:PortList,
  {eb8dd541-9755-4b65-8ae8-f76b0e5eb0e9}, !- Handle
  {357d41ec-5871-4ae4-84db-883bec1e03df}, !- Name
  {3bf66cf3-b2e6-4203-9a72-053d1ec97d55}; !- HVAC Component

OS:Sizing:Zone,
  {f941802d-ab0b-40d9-9191-aa34db6d3d04}, !- Handle
  {3bf66cf3-b2e6-4203-9a72-053d1ec97d55}, !- Zone or ZoneList Name
  SupplyAirTemperature,                   !- Zone Cooling Design Supply Air Temperature Input Method
  14,                                     !- Zone Cooling Design Supply Air Temperature {C}
  11.11,                                  !- Zone Cooling Design Supply Air Temperature Difference {deltaC}
  SupplyAirTemperature,                   !- Zone Heating Design Supply Air Temperature Input Method
  40,                                     !- Zone Heating Design Supply Air Temperature {C}
  11.11,                                  !- Zone Heating Design Supply Air Temperature Difference {deltaC}
  0.0085,                                 !- Zone Cooling Design Supply Air Humidity Ratio {kg-H2O/kg-air}
  0.008,                                  !- Zone Heating Design Supply Air Humidity Ratio {kg-H2O/kg-air}
  ,                                       !- Zone Heating Sizing Factor
  ,                                       !- Zone Cooling Sizing Factor
  DesignDay,                              !- Cooling Design Air Flow Method
  ,                                       !- Cooling Design Air Flow Rate {m3/s}
  ,                                       !- Cooling Minimum Air Flow per Zone Floor Area {m3/s-m2}
  ,                                       !- Cooling Minimum Air Flow {m3/s}
  ,                                       !- Cooling Minimum Air Flow Fraction
  DesignDay,                              !- Heating Design Air Flow Method
  ,                                       !- Heating Design Air Flow Rate {m3/s}
  ,                                       !- Heating Maximum Air Flow per Zone Floor Area {m3/s-m2}
  ,                                       !- Heating Maximum Air Flow {m3/s}
  ,                                       !- Heating Maximum Air Flow Fraction
  ,                                       !- Design Zone Air Distribution Effectiveness in Cooling Mode
  ,                                       !- Design Zone Air Distribution Effectiveness in Heating Mode
  No,                                     !- Account for Dedicated Outdoor Air System
  NeutralSupplyAir,                       !- Dedicated Outdoor Air System Control Strategy
  autosize,                               !- Dedicated Outdoor Air Low Setpoint Temperature for Design {C}
  autosize;                               !- Dedicated Outdoor Air High Setpoint Temperature for Design {C}

OS:ZoneHVAC:EquipmentList,
  {03fbf231-8e63-4029-89ff-0d1988520482}, !- Handle
  Zone HVAC Equipment List 2,             !- Name
  {3bf66cf3-b2e6-4203-9a72-053d1ec97d55}; !- Thermal Zone

OS:Space,
  {94038904-8b66-4d16-9c89-f56a6c28ce0e}, !- Handle
  garage space,                           !- Name
  {32c782c8-d9a9-4ae5-bddc-b5770f3b82dc}, !- Space Type Name
  ,                                       !- Default Construction Set Name
  ,                                       !- Default Schedule Set Name
  -0,                                     !- Direction of Relative North {deg}
  0,                                      !- X Origin {m}
  0,                                      !- Y Origin {m}
  0,                                      !- Z Origin {m}
  ,                                       !- Building Story Name
  {3bf66cf3-b2e6-4203-9a72-053d1ec97d55}; !- Thermal Zone Name

OS:Surface,
  {8f837d2c-b577-45b2-ab63-8331384f28ae}, !- Handle
  Surface 1,                              !- Name
  Floor,                                  !- Surface Type
  ,                                       !- Construction Name
  {94038904-8b66-4d16-9c89-f56a6c28ce0e}, !- Space Name
  Foundation,                             !- Outside Boundary Condition
  ,                                       !- Outside Boundary Condition Object
  NoSun,                                  !- Sun Exposure
  NoWind,                                 !- Wind Exposure
  ,                                       !- View Factor to Ground
  ,                                       !- Number of Vertices
  10.7681689431101, 0, 0,                 !- X,Y,Z Vertex 1 {m}
  10.7681689431101, 6.096, 0,             !- X,Y,Z Vertex 2 {m}
  14.4257689431101, 6.096, 0,             !- X,Y,Z Vertex 3 {m}
  14.4257689431101, 0, 0;                 !- X,Y,Z Vertex 4 {m}

OS:Surface,
  {1761d836-beac-4936-990b-bdec8fee931b}, !- Handle
  Surface 2,                              !- Name
  Wall,                                   !- Surface Type
  ,                                       !- Construction Name
  {94038904-8b66-4d16-9c89-f56a6c28ce0e}, !- Space Name
  Surface,                                !- Outside Boundary Condition
  {e757be7e-c256-424f-ae49-7fac8be050e8}, !- Outside Boundary Condition Object
  NoSun,                                  !- Sun Exposure
  NoWind,                                 !- Wind Exposure
  ,                                       !- View Factor to Ground
  ,                                       !- Number of Vertices
  10.7681689431101, 6.096, 2.4384,        !- X,Y,Z Vertex 1 {m}
  10.7681689431101, 6.096, 0,             !- X,Y,Z Vertex 2 {m}
  10.7681689431101, 0, 0,                 !- X,Y,Z Vertex 3 {m}
  10.7681689431101, 0, 2.4384;            !- X,Y,Z Vertex 4 {m}

OS:Surface,
  {84949e6e-0478-4816-a238-2ded1eb8fe08}, !- Handle
  Surface 3,                              !- Name
  Wall,                                   !- Surface Type
  ,                                       !- Construction Name
  {94038904-8b66-4d16-9c89-f56a6c28ce0e}, !- Space Name
  Surface,                                !- Outside Boundary Condition
  {86f675f1-0389-4fad-8ab6-66a17d26199b}, !- Outside Boundary Condition Object
  NoSun,                                  !- Sun Exposure
  NoWind,                                 !- Wind Exposure
  ,                                       !- View Factor to Ground
  ,                                       !- Number of Vertices
  14.4257689431101, 6.096, 2.4384,        !- X,Y,Z Vertex 1 {m}
  14.4257689431101, 6.096, 0,             !- X,Y,Z Vertex 2 {m}
  10.7681689431101, 6.096, 0,             !- X,Y,Z Vertex 3 {m}
  10.7681689431101, 6.096, 2.4384;        !- X,Y,Z Vertex 4 {m}

OS:Surface,
  {5e6d45f6-71f2-461b-8eac-1ac1ea687566}, !- Handle
  Surface 4,                              !- Name
  Wall,                                   !- Surface Type
  ,                                       !- Construction Name
  {94038904-8b66-4d16-9c89-f56a6c28ce0e}, !- Space Name
  Outdoors,                               !- Outside Boundary Condition
  ,                                       !- Outside Boundary Condition Object
  SunExposed,                             !- Sun Exposure
  WindExposed,                            !- Wind Exposure
  ,                                       !- View Factor to Ground
  ,                                       !- Number of Vertices
  14.4257689431101, 0, 2.4384,            !- X,Y,Z Vertex 1 {m}
  14.4257689431101, 0, 0,                 !- X,Y,Z Vertex 2 {m}
  14.4257689431101, 6.096, 0,             !- X,Y,Z Vertex 3 {m}
  14.4257689431101, 6.096, 2.4384;        !- X,Y,Z Vertex 4 {m}

OS:Surface,
  {184e204f-b6bd-47af-a991-0b0a7618a13b}, !- Handle
  Surface 5,                              !- Name
  Wall,                                   !- Surface Type
  ,                                       !- Construction Name
  {94038904-8b66-4d16-9c89-f56a6c28ce0e}, !- Space Name
  Outdoors,                               !- Outside Boundary Condition
  ,                                       !- Outside Boundary Condition Object
  SunExposed,                             !- Sun Exposure
  WindExposed,                            !- Wind Exposure
  ,                                       !- View Factor to Ground
  ,                                       !- Number of Vertices
  10.7681689431101, 0, 2.4384,            !- X,Y,Z Vertex 1 {m}
  10.7681689431101, 0, 0,                 !- X,Y,Z Vertex 2 {m}
  14.4257689431101, 0, 0,                 !- X,Y,Z Vertex 3 {m}
  14.4257689431101, 0, 2.4384;            !- X,Y,Z Vertex 4 {m}

OS:Surface,
  {d2c00713-26e9-431b-a0f9-672b058c9bbc}, !- Handle
  Surface 6,                              !- Name
  RoofCeiling,                            !- Surface Type
  ,                                       !- Construction Name
  {94038904-8b66-4d16-9c89-f56a6c28ce0e}, !- Space Name
  Surface,                                !- Outside Boundary Condition
  {aebb06f5-2977-4470-86c9-a2f14d1bfa90}, !- Outside Boundary Condition Object
  NoSun,                                  !- Sun Exposure
  NoWind,                                 !- Wind Exposure
  ,                                       !- View Factor to Ground
  ,                                       !- Number of Vertices
  14.4257689431101, 0, 2.4384,            !- X,Y,Z Vertex 1 {m}
  14.4257689431101, 6.096, 2.4384,        !- X,Y,Z Vertex 2 {m}
  10.7681689431101, 6.096, 2.4384,        !- X,Y,Z Vertex 3 {m}
  10.7681689431101, 0, 2.4384;            !- X,Y,Z Vertex 4 {m}

OS:SpaceType,
  {32c782c8-d9a9-4ae5-bddc-b5770f3b82dc}, !- Handle
  Space Type 1,                           !- Name
  ,                                       !- Default Construction Set Name
  ,                                       !- Default Schedule Set Name
  ,                                       !- Group Rendering Name
  ,                                       !- Design Specification Outdoor Air Object Name
  ,                                       !- Standards Building Type
  garage;                                 !- Standards Space Type

OS:Space,
  {e6799ae3-6fcf-448b-8736-ce2dd821fd13}, !- Handle
  living space,                           !- Name
  {9d54c6a6-cefc-4ed6-9e04-a46585cbd21a}, !- Space Type Name
  ,                                       !- Default Construction Set Name
  ,                                       !- Default Schedule Set Name
  -0,                                     !- Direction of Relative North {deg}
  0,                                      !- X Origin {m}
  0,                                      !- Y Origin {m}
  0,                                      !- Z Origin {m}
  ,                                       !- Building Story Name
  {5cb0b02e-5f06-4e7d-93ad-79dcd2457b52}, !- Thermal Zone Name
  ,                                       !- Part of Total Floor Area
  ,                                       !- Design Specification Outdoor Air Object Name
  {26c92e38-b1cb-4844-aa6f-039b17bf4bc0}; !- Building Unit Name

OS:Surface,
  {23437377-19ac-4ded-ab85-466181c6144d}, !- Handle
  Surface 7,                              !- Name
  Floor,                                  !- Surface Type
  ,                                       !- Construction Name
  {e6799ae3-6fcf-448b-8736-ce2dd821fd13}, !- Space Name
  Foundation,                             !- Outside Boundary Condition
  ,                                       !- Outside Boundary Condition Object
  NoSun,                                  !- Sun Exposure
  NoWind,                                 !- Wind Exposure
  ,                                       !- View Factor to Ground
  ,                                       !- Number of Vertices
  0, 0, 0,                                !- X,Y,Z Vertex 1 {m}
  0, 7.21288447155505, 0,                 !- X,Y,Z Vertex 2 {m}
  14.4257689431101, 7.21288447155505, 0,  !- X,Y,Z Vertex 3 {m}
  14.4257689431101, 6.096, 0,             !- X,Y,Z Vertex 4 {m}
  10.7681689431101, 6.096, 0,             !- X,Y,Z Vertex 5 {m}
  10.7681689431101, 0, 0;                 !- X,Y,Z Vertex 6 {m}

OS:Surface,
  {e08f27c3-779f-4adb-b34e-8122799a53e5}, !- Handle
  Surface 8,                              !- Name
  Wall,                                   !- Surface Type
  ,                                       !- Construction Name
  {e6799ae3-6fcf-448b-8736-ce2dd821fd13}, !- Space Name
  Outdoors,                               !- Outside Boundary Condition
  ,                                       !- Outside Boundary Condition Object
  SunExposed,                             !- Sun Exposure
  WindExposed,                            !- Wind Exposure
  ,                                       !- View Factor to Ground
  ,                                       !- Number of Vertices
  0, 7.21288447155505, 2.4384,            !- X,Y,Z Vertex 1 {m}
  0, 7.21288447155505, 0,                 !- X,Y,Z Vertex 2 {m}
  0, 0, 0,                                !- X,Y,Z Vertex 3 {m}
  0, 0, 2.4384;                           !- X,Y,Z Vertex 4 {m}

OS:Surface,
  {932ad08b-15ad-4a8a-a1b4-4e263b313848}, !- Handle
  Surface 9,                              !- Name
  Wall,                                   !- Surface Type
  ,                                       !- Construction Name
  {e6799ae3-6fcf-448b-8736-ce2dd821fd13}, !- Space Name
  Outdoors,                               !- Outside Boundary Condition
  ,                                       !- Outside Boundary Condition Object
  SunExposed,                             !- Sun Exposure
  WindExposed,                            !- Wind Exposure
  ,                                       !- View Factor to Ground
  ,                                       !- Number of Vertices
  14.4257689431101, 7.21288447155505, 2.4384, !- X,Y,Z Vertex 1 {m}
  14.4257689431101, 7.21288447155505, 0,  !- X,Y,Z Vertex 2 {m}
  0, 7.21288447155505, 0,                 !- X,Y,Z Vertex 3 {m}
  0, 7.21288447155505, 2.4384;            !- X,Y,Z Vertex 4 {m}

OS:Surface,
  {3703c940-3ea0-4e01-a559-b40b1138ce3b}, !- Handle
  Surface 10,                             !- Name
  Wall,                                   !- Surface Type
  ,                                       !- Construction Name
  {e6799ae3-6fcf-448b-8736-ce2dd821fd13}, !- Space Name
  Outdoors,                               !- Outside Boundary Condition
  ,                                       !- Outside Boundary Condition Object
  SunExposed,                             !- Sun Exposure
  WindExposed,                            !- Wind Exposure
  ,                                       !- View Factor to Ground
  ,                                       !- Number of Vertices
  14.4257689431101, 6.096, 2.4384,        !- X,Y,Z Vertex 1 {m}
  14.4257689431101, 6.096, 0,             !- X,Y,Z Vertex 2 {m}
  14.4257689431101, 7.21288447155505, 0,  !- X,Y,Z Vertex 3 {m}
  14.4257689431101, 7.21288447155505, 2.4384; !- X,Y,Z Vertex 4 {m}

OS:Surface,
  {86f675f1-0389-4fad-8ab6-66a17d26199b}, !- Handle
  Surface 11,                             !- Name
  Wall,                                   !- Surface Type
  ,                                       !- Construction Name
  {e6799ae3-6fcf-448b-8736-ce2dd821fd13}, !- Space Name
  Surface,                                !- Outside Boundary Condition
  {84949e6e-0478-4816-a238-2ded1eb8fe08}, !- Outside Boundary Condition Object
  NoSun,                                  !- Sun Exposure
  NoWind,                                 !- Wind Exposure
  ,                                       !- View Factor to Ground
  ,                                       !- Number of Vertices
  10.7681689431101, 6.096, 2.4384,        !- X,Y,Z Vertex 1 {m}
  10.7681689431101, 6.096, 0,             !- X,Y,Z Vertex 2 {m}
  14.4257689431101, 6.096, 0,             !- X,Y,Z Vertex 3 {m}
  14.4257689431101, 6.096, 2.4384;        !- X,Y,Z Vertex 4 {m}

OS:Surface,
  {e757be7e-c256-424f-ae49-7fac8be050e8}, !- Handle
  Surface 12,                             !- Name
  Wall,                                   !- Surface Type
  ,                                       !- Construction Name
  {e6799ae3-6fcf-448b-8736-ce2dd821fd13}, !- Space Name
  Surface,                                !- Outside Boundary Condition
  {1761d836-beac-4936-990b-bdec8fee931b}, !- Outside Boundary Condition Object
  NoSun,                                  !- Sun Exposure
  NoWind,                                 !- Wind Exposure
  ,                                       !- View Factor to Ground
  ,                                       !- Number of Vertices
  10.7681689431101, 0, 2.4384,            !- X,Y,Z Vertex 1 {m}
  10.7681689431101, 0, 0,                 !- X,Y,Z Vertex 2 {m}
  10.7681689431101, 6.096, 0,             !- X,Y,Z Vertex 3 {m}
  10.7681689431101, 6.096, 2.4384;        !- X,Y,Z Vertex 4 {m}

OS:Surface,
  {c24fff81-8868-4d78-842b-8aadd317440c}, !- Handle
  Surface 13,                             !- Name
  Wall,                                   !- Surface Type
  ,                                       !- Construction Name
  {e6799ae3-6fcf-448b-8736-ce2dd821fd13}, !- Space Name
  Outdoors,                               !- Outside Boundary Condition
  ,                                       !- Outside Boundary Condition Object
  SunExposed,                             !- Sun Exposure
  WindExposed,                            !- Wind Exposure
  ,                                       !- View Factor to Ground
  ,                                       !- Number of Vertices
  0, 0, 2.4384,                           !- X,Y,Z Vertex 1 {m}
  0, 0, 0,                                !- X,Y,Z Vertex 2 {m}
  10.7681689431101, 0, 0,                 !- X,Y,Z Vertex 3 {m}
  10.7681689431101, 0, 2.4384;            !- X,Y,Z Vertex 4 {m}

OS:Surface,
  {500d778c-c69a-4738-8769-8e1da3cf80a1}, !- Handle
  Surface 14,                             !- Name
  RoofCeiling,                            !- Surface Type
  ,                                       !- Construction Name
  {e6799ae3-6fcf-448b-8736-ce2dd821fd13}, !- Space Name
  Surface,                                !- Outside Boundary Condition
  {20a0c9e0-11cd-4749-9437-f0baa279564d}, !- Outside Boundary Condition Object
  NoSun,                                  !- Sun Exposure
  NoWind,                                 !- Wind Exposure
  ,                                       !- View Factor to Ground
  ,                                       !- Number of Vertices
  10.7681689431101, 0, 2.4384,            !- X,Y,Z Vertex 1 {m}
  10.7681689431101, 6.096, 2.4384,        !- X,Y,Z Vertex 2 {m}
  14.4257689431101, 6.096, 2.4384,        !- X,Y,Z Vertex 3 {m}