!- NOTE: Auto-generated from /test/osw_files/SFD_2000sqft_2story_SL_GRG_UA_3Beds_2Baths_Denver_Furnace_CentralAC.osw

OS:Version,
  {44dd177a-c0a3-4134-a0c1-82288124976f}, !- Handle
  2.6.1;                                  !- Version Identifier

OS:Building,
  {c04134c8-c73a-40f4-b119-fe35bade93e6}, !- Handle
  Building 1,                             !- Name
  ,                                       !- Building Sector Type
  0,                                      !- North Axis {deg}
  ,                                       !- Nominal Floor to Floor Height {m}
  ,                                       !- Space Type Name
  ,                                       !- Default Construction Set Name
  ,                                       !- Default Schedule Set Name
  2,                                      !- Standards Number of Stories
  2,                                      !- Standards Number of Above Ground Stories
  singlefamilydetached,                   !- Standards Building Type
  1;                                      !- Standards Number of Living Units

OS:Facility,
  {2a06051a-da0c-4fae-b68b-b3992af99c94}; !- Handle

OS:Site,
  {1b74f602-eb36-459f-ba36-af72d114f689}, !- Handle
  Denver Intl Ap_CO_USA,                  !- Name
  39.83,                                  !- Latitude {deg}
  -104.65,                                !- Longitude {deg}
  -7,                                     !- Time Zone {hr}
  1650,                                   !- Elevation {m}
  ;                                       !- Terrain

OS:SimulationControl,
  {61e88f25-8bb5-415b-9976-f0a36d0c762b}, !- Handle
  ,                                       !- Do Zone Sizing Calculation
  ,                                       !- Do System Sizing Calculation
  ,                                       !- Do Plant Sizing Calculation
  No;                                     !- Run Simulation for Sizing Periods

OS:Sizing:Parameters,
  {6e889b82-c9ad-4633-9a51-2adb0faf6ecb}, !- Handle
  1.25,                                   !- Heating Sizing Factor
  1.15;                                   !- Cooling Sizing Factor

OS:Timestep,
  {e4ccdf29-1cc6-41b6-a9cb-15a623686a7d}, !- Handle
  6;                                      !- Number of Timesteps per Hour

OS:ShadowCalculation,
  {ea488502-f3e3-44a6-93b3-7848473096fc}, !- Handle
  20,                                     !- Calculation Frequency
  200;                                    !- Maximum Figures in Shadow Overlap Calculations

OS:HeatBalanceAlgorithm,
  {856ec969-58b3-496a-938f-a408881742db}, !- Handle
  ConductionTransferFunction,             !- Algorithm
  200;                                    !- Surface Temperature Upper Limit {C}

OS:RunPeriod,
  {ef04bcd0-3730-49b2-948b-cb93e7269275}, !- Handle
  Run Period 1,                           !- Name
  1,                                      !- Begin Month
  1,                                      !- Begin Day of Month
  12,                                     !- End Month
  31,                                     !- End Day of Month
  ,                                       !- Use Weather File Holidays and Special Days
  ,                                       !- Use Weather File Daylight Saving Period
  ,                                       !- Apply Weekend Holiday Rule
  ,                                       !- Use Weather File Rain Indicators
  ,                                       !- Use Weather File Snow Indicators
  ;                                       !- Number of Times Runperiod to be Repeated

OS:LifeCycleCost:Parameters,
  {1e8b9b4e-7323-4637-85c6-379adfad54f7}, !- Handle
  ,                                       !- Analysis Type
  ,                                       !- Discounting Convention
  ,                                       !- Inflation Approach
  ,                                       !- Real Discount Rate
  ,                                       !- Nominal Discount Rate
  ,                                       !- Inflation
  ,                                       !- Base Date Month
  ,                                       !- Base Date Year
  ,                                       !- Service Date Month
  ,                                       !- Service Date Year
  ;                                       !- Length of Study Period in Years

OS:ThermalZone,
  {783e9475-8136-4e35-98c8-6a3beae08149}, !- Handle
  living zone,                            !- Name
  ,                                       !- Multiplier
  ,                                       !- Ceiling Height {m}
  ,                                       !- Volume {m3}
  ,                                       !- Floor Area {m2}
  ,                                       !- Zone Inside Convection Algorithm
  ,                                       !- Zone Outside Convection Algorithm
  ,                                       !- Zone Conditioning Equipment List Name
  {8539ed4e-f778-4d01-a0a7-6eb82c9a6dd0}, !- Zone Air Inlet Port List
  {ee04fd0d-7164-4c2b-a516-df04682db9b0}, !- Zone Air Exhaust Port List
  {848759e0-992c-4eab-bbd4-da99c4733321}, !- Zone Air Node Name
  {5ea78aac-d20c-4284-bd6a-6a7f95ec178a}, !- Zone Return Air Port List
  ,                                       !- Primary Daylighting Control Name
  ,                                       !- Fraction of Zone Controlled by Primary Daylighting Control
  ,                                       !- Secondary Daylighting Control Name
  ,                                       !- Fraction of Zone Controlled by Secondary Daylighting Control
  ,                                       !- Illuminance Map Name
  ,                                       !- Group Rendering Name
  {766d56e6-d670-45da-afa2-17c656074252}, !- Thermostat Name
  No;                                     !- Use Ideal Air Loads

OS:Node,
  {eaaf326b-a441-4c76-b1a8-bb99c12f7209}, !- Handle
  Node 1,                                 !- Name
  {848759e0-992c-4eab-bbd4-da99c4733321}, !- Inlet Port
  ;                                       !- Outlet Port

OS:Connection,
  {848759e0-992c-4eab-bbd4-da99c4733321}, !- Handle
  {f7819175-a3de-493c-947e-dfe431e63df5}, !- Name
  {783e9475-8136-4e35-98c8-6a3beae08149}, !- Source Object
  11,                                     !- Outlet Port
  {eaaf326b-a441-4c76-b1a8-bb99c12f7209}, !- Target Object
  2;                                      !- Inlet Port

OS:PortList,
  {8539ed4e-f778-4d01-a0a7-6eb82c9a6dd0}, !- Handle
  {d376b205-68c5-45a9-8c65-b61b9463ddfe}, !- Name
  {783e9475-8136-4e35-98c8-6a3beae08149}, !- HVAC Component
  {dce9419a-18fc-49b7-ad37-8b1718131e45}, !- Port 1
  {0e235868-610e-45b9-8685-55d095494e72}; !- Port 2

OS:PortList,
  {ee04fd0d-7164-4c2b-a516-df04682db9b0}, !- Handle
  {b3bcd870-10c5-4643-9fed-36030868b3e4}, !- Name
  {783e9475-8136-4e35-98c8-6a3beae08149}; !- HVAC Component

OS:PortList,
  {5ea78aac-d20c-4284-bd6a-6a7f95ec178a}, !- Handle
  {c61d9709-b9a7-403f-9a94-9ded74a55af3}, !- Name
  {783e9475-8136-4e35-98c8-6a3beae08149}, !- HVAC Component
  {02ea82fe-9a8a-44b5-951e-b32aecb3e515}, !- Port 1
  {a4d02e62-ba65-4c29-b4a3-b4fdbdc709ff}; !- Port 2

OS:Sizing:Zone,
  {614a0b04-d00f-460a-bf20-0c1f5f43b5ab}, !- Handle
  {783e9475-8136-4e35-98c8-6a3beae08149}, !- Zone or ZoneList Name
  SupplyAirTemperature,                   !- Zone Cooling Design Supply Air Temperature Input Method
  14,                                     !- Zone Cooling Design Supply Air Temperature {C}
  11.11,                                  !- Zone Cooling Design Supply Air Temperature Difference {deltaC}
  SupplyAirTemperature,                   !- Zone Heating Design Supply Air Temperature Input Method
  40,                                     !- Zone Heating Design Supply Air Temperature {C}
  11.11,                                  !- Zone Heating Design Supply Air Temperature Difference {deltaC}
  0.0085,                                 !- Zone Cooling Design Supply Air Humidity Ratio {kg-H2O/kg-air}
  0.008,                                  !- Zone Heating Design Supply Air Humidity Ratio {kg-H2O/kg-air}
  ,                                       !- Zone Heating Sizing Factor
  ,                                       !- Zone Cooling Sizing Factor
  DesignDay,                              !- Cooling Design Air Flow Method
  ,                                       !- Cooling Design Air Flow Rate {m3/s}
  ,                                       !- Cooling Minimum Air Flow per Zone Floor Area {m3/s-m2}
  ,                                       !- Cooling Minimum Air Flow {m3/s}
  ,                                       !- Cooling Minimum Air Flow Fraction
  DesignDay,                              !- Heating Design Air Flow Method
  ,                                       !- Heating Design Air Flow Rate {m3/s}
  ,                                       !- Heating Maximum Air Flow per Zone Floor Area {m3/s-m2}
  ,                                       !- Heating Maximum Air Flow {m3/s}
  ,                                       !- Heating Maximum Air Flow Fraction
  ,                                       !- Design Zone Air Distribution Effectiveness in Cooling Mode
  ,                                       !- Design Zone Air Distribution Effectiveness in Heating Mode
  No,                                     !- Account for Dedicated Outdoor Air System
  NeutralSupplyAir,                       !- Dedicated Outdoor Air System Control Strategy
  autosize,                               !- Dedicated Outdoor Air Low Setpoint Temperature for Design {C}
  autosize;                               !- Dedicated Outdoor Air High Setpoint Temperature for Design {C}

OS:ZoneHVAC:EquipmentList,
  {799a9226-87a6-4380-b9e3-949593881c83}, !- Handle
  Zone HVAC Equipment List 1,             !- Name
  {783e9475-8136-4e35-98c8-6a3beae08149}, !- Thermal Zone
  {45691912-447f-413b-ab81-74472eb05cac}, !- Zone Equipment 1
  1,                                      !- Zone Equipment Cooling Sequence 1
  1,                                      !- Zone Equipment Heating or No-Load Sequence 1
  {0900babb-d1ab-4be5-b18a-862c1bc1f3f2}, !- Zone Equipment 2
  2,                                      !- Zone Equipment Cooling Sequence 2
  2;                                      !- Zone Equipment Heating or No-Load Sequence 2

OS:ThermalZone,
  {125bd4f7-dfbd-4750-a8ac-df6e0f6b04f4}, !- Handle
  garage zone,                            !- Name
  ,                                       !- Multiplier
  ,                                       !- Ceiling Height {m}
  ,                                       !- Volume {m3}
  ,                                       !- Floor Area {m2}
  ,                                       !- Zone Inside Convection Algorithm
  ,                                       !- Zone Outside Convection Algorithm
  ,                                       !- Zone Conditioning Equipment List Name
  {afb1f86f-4e6b-4911-abe2-0c57a5f81bae}, !- Zone Air Inlet Port List
  {527bace2-a799-4be4-9ea7-243c9aba7f4e}, !- Zone Air Exhaust Port List
  {0d1cd3bd-ceee-401c-b852-924833065a12}, !- Zone Air Node Name
  {2df93cc9-b7dd-4877-a4a3-0e2690f4b05d}, !- Zone Return Air Port List
  ,                                       !- Primary Daylighting Control Name
  ,                                       !- Fraction of Zone Controlled by Primary Daylighting Control
  ,                                       !- Secondary Daylighting Control Name
  ,                                       !- Fraction of Zone Controlled by Secondary Daylighting Control
  ,                                       !- Illuminance Map Name
  ,                                       !- Group Rendering Name
  ,                                       !- Thermostat Name
  No;                                     !- Use Ideal Air Loads

OS:Node,
  {fe6bd31b-ce6f-4e8a-8e9b-d4541ae209f4}, !- Handle
  Node 2,                                 !- Name
  {0d1cd3bd-ceee-401c-b852-924833065a12}, !- Inlet Port
  ;                                       !- Outlet Port

OS:Connection,
  {0d1cd3bd-ceee-401c-b852-924833065a12}, !- Handle
  {571f4c4b-5bfb-4dc9-899c-1042169d305b}, !- Name
  {125bd4f7-dfbd-4750-a8ac-df6e0f6b04f4}, !- Source Object
  11,                                     !- Outlet Port
  {fe6bd31b-ce6f-4e8a-8e9b-d4541ae209f4}, !- Target Object
  2;                                      !- Inlet Port

OS:PortList,
  {afb1f86f-4e6b-4911-abe2-0c57a5f81bae}, !- Handle
  {9b3f6070-4357-40dd-85ad-c1e2bd44eca8}, !- Name
  {125bd4f7-dfbd-4750-a8ac-df6e0f6b04f4}; !- HVAC Component

OS:PortList,
  {527bace2-a799-4be4-9ea7-243c9aba7f4e}, !- Handle
  {166f6b63-9adb-4f49-884a-32b5d2af6a32}, !- Name
  {125bd4f7-dfbd-4750-a8ac-df6e0f6b04f4}; !- HVAC Component

OS:PortList,
  {2df93cc9-b7dd-4877-a4a3-0e2690f4b05d}, !- Handle
  {be02ecdf-48ca-4afa-a63d-5f38d8d03147}, !- Name
  {125bd4f7-dfbd-4750-a8ac-df6e0f6b04f4}; !- HVAC Component

OS:Sizing:Zone,
  {41deb665-fcee-43af-b671-6c90fc7bd78c}, !- Handle
  {125bd4f7-dfbd-4750-a8ac-df6e0f6b04f4}, !- Zone or ZoneList Name
  SupplyAirTemperature,                   !- Zone Cooling Design Supply Air Temperature Input Method
  14,                                     !- Zone Cooling Design Supply Air Temperature {C}
  11.11,                                  !- Zone Cooling Design Supply Air Temperature Difference {deltaC}
  SupplyAirTemperature,                   !- Zone Heating Design Supply Air Temperature Input Method
  40,                                     !- Zone Heating Design Supply Air Temperature {C}
  11.11,                                  !- Zone Heating Design Supply Air Temperature Difference {deltaC}
  0.0085,                                 !- Zone Cooling Design Supply Air Humidity Ratio {kg-H2O/kg-air}
  0.008,                                  !- Zone Heating Design Supply Air Humidity Ratio {kg-H2O/kg-air}
  ,                                       !- Zone Heating Sizing Factor
  ,                                       !- Zone Cooling Sizing Factor
  DesignDay,                              !- Cooling Design Air Flow Method
  ,                                       !- Cooling Design Air Flow Rate {m3/s}
  ,                                       !- Cooling Minimum Air Flow per Zone Floor Area {m3/s-m2}
  ,                                       !- Cooling Minimum Air Flow {m3/s}
  ,                                       !- Cooling Minimum Air Flow Fraction
  DesignDay,                              !- Heating Design Air Flow Method
  ,                                       !- Heating Design Air Flow Rate {m3/s}
  ,                                       !- Heating Maximum Air Flow per Zone Floor Area {m3/s-m2}
  ,                                       !- Heating Maximum Air Flow {m3/s}
  ,                                       !- Heating Maximum Air Flow Fraction
  ,                                       !- Design Zone Air Distribution Effectiveness in Cooling Mode
  ,                                       !- Design Zone Air Distribution Effectiveness in Heating Mode
  No,                                     !- Account for Dedicated Outdoor Air System
  NeutralSupplyAir,                       !- Dedicated Outdoor Air System Control Strategy
  autosize,                               !- Dedicated Outdoor Air Low Setpoint Temperature for Design {C}
  autosize;                               !- Dedicated Outdoor Air High Setpoint Temperature for Design {C}

OS:ZoneHVAC:EquipmentList,
  {85abecc6-fda2-440b-9b1e-5190c9796613}, !- Handle
  Zone HVAC Equipment List 2,             !- Name
  {125bd4f7-dfbd-4750-a8ac-df6e0f6b04f4}; !- Thermal Zone

OS:Space,
  {6b76c277-e3cb-40e6-995a-e89cba504102}, !- Handle
  garage space,                           !- Name
  {db91e364-31a0-4cc0-bcf5-8bc18b2171a5}, !- Space Type Name
  ,                                       !- Default Construction Set Name
  ,                                       !- Default Schedule Set Name
  -0,                                     !- Direction of Relative North {deg}
  0,                                      !- X Origin {m}
  0,                                      !- Y Origin {m}
  0,                                      !- Z Origin {m}
  ,                                       !- Building Story Name
  {125bd4f7-dfbd-4750-a8ac-df6e0f6b04f4}; !- Thermal Zone Name

OS:Surface,
  {45d0de0a-c66b-4b6a-8551-bc9b49cba897}, !- Handle
  Surface 1,                              !- Name
  Floor,                                  !- Surface Type
  ,                                       !- Construction Name
  {6b76c277-e3cb-40e6-995a-e89cba504102}, !- Space Name
  Foundation,                             !- Outside Boundary Condition
  ,                                       !- Outside Boundary Condition Object
  NoSun,                                  !- Sun Exposure
  NoWind,                                 !- Wind Exposure
  ,                                       !- View Factor to Ground
  ,                                       !- Number of Vertices
  10.7681689431101, 0, 0,                 !- X,Y,Z Vertex 1 {m}
  10.7681689431101, 6.096, 0,             !- X,Y,Z Vertex 2 {m}
  14.4257689431101, 6.096, 0,             !- X,Y,Z Vertex 3 {m}
  14.4257689431101, 0, 0;                 !- X,Y,Z Vertex 4 {m}

OS:Surface,
  {db8c1f45-5000-4393-9283-23281243a639}, !- Handle
  Surface 2,                              !- Name
  Wall,                                   !- Surface Type
  ,                                       !- Construction Name
  {6b76c277-e3cb-40e6-995a-e89cba504102}, !- Space Name
  Surface,                                !- Outside Boundary Condition
  {dbdf9faf-4ae2-4146-b0c6-357ef9223a75}, !- Outside Boundary Condition Object
  NoSun,                                  !- Sun Exposure
  NoWind,                                 !- Wind Exposure
  ,                                       !- View Factor to Ground
  ,                                       !- Number of Vertices
  10.7681689431101, 6.096, 2.4384,        !- X,Y,Z Vertex 1 {m}
  10.7681689431101, 6.096, 0,             !- X,Y,Z Vertex 2 {m}
  10.7681689431101, 0, 0,                 !- X,Y,Z Vertex 3 {m}
  10.7681689431101, 0, 2.4384;            !- X,Y,Z Vertex 4 {m}

OS:Surface,
  {3bd87549-05d0-4095-8f55-8ac3605b5446}, !- Handle
  Surface 3,                              !- Name
  Wall,                                   !- Surface Type
  ,                                       !- Construction Name
  {6b76c277-e3cb-40e6-995a-e89cba504102}, !- Space Name
  Surface,                                !- Outside Boundary Condition
  {4a4039aa-5693-4851-b113-4907d90da1d5}, !- Outside Boundary Condition Object
  NoSun,                                  !- Sun Exposure
  NoWind,                                 !- Wind Exposure
  ,                                       !- View Factor to Ground
  ,                                       !- Number of Vertices
  14.4257689431101, 6.096, 2.4384,        !- X,Y,Z Vertex 1 {m}
  14.4257689431101, 6.096, 0,             !- X,Y,Z Vertex 2 {m}
  10.7681689431101, 6.096, 0,             !- X,Y,Z Vertex 3 {m}
  10.7681689431101, 6.096, 2.4384;        !- X,Y,Z Vertex 4 {m}

OS:Surface,
  {28fdaae4-80ab-4439-9735-47fb1119c039}, !- Handle
  Surface 4,                              !- Name
  Wall,                                   !- Surface Type
  ,                                       !- Construction Name
  {6b76c277-e3cb-40e6-995a-e89cba504102}, !- Space Name
  Outdoors,                               !- Outside Boundary Condition
  ,                                       !- Outside Boundary Condition Object
  SunExposed,                             !- Sun Exposure
  WindExposed,                            !- Wind Exposure
  ,                                       !- View Factor to Ground
  ,                                       !- Number of Vertices
  14.4257689431101, 0, 2.4384,            !- X,Y,Z Vertex 1 {m}
  14.4257689431101, 0, 0,                 !- X,Y,Z Vertex 2 {m}
  14.4257689431101, 6.096, 0,             !- X,Y,Z Vertex 3 {m}
  14.4257689431101, 6.096, 2.4384;        !- X,Y,Z Vertex 4 {m}

OS:Surface,
  {3b46f8a6-f58a-414b-a1f2-0955af02c967}, !- Handle
  Surface 5,                              !- Name
  Wall,                                   !- Surface Type
  ,                                       !- Construction Name
  {6b76c277-e3cb-40e6-995a-e89cba504102}, !- Space Name
  Outdoors,                               !- Outside Boundary Condition
  ,                                       !- Outside Boundary Condition Object
  SunExposed,                             !- Sun Exposure
  WindExposed,                            !- Wind Exposure
  ,                                       !- View Factor to Ground
  ,                                       !- Number of Vertices
  10.7681689431101, 0, 2.4384,            !- X,Y,Z Vertex 1 {m}
  10.7681689431101, 0, 0,                 !- X,Y,Z Vertex 2 {m}
  14.4257689431101, 0, 0,                 !- X,Y,Z Vertex 3 {m}
  14.4257689431101, 0, 2.4384;            !- X,Y,Z Vertex 4 {m}

OS:Surface,
  {81298ade-366d-4f9b-b396-72e7b1fcf7a0}, !- Handle
  Surface 6,                              !- Name
  RoofCeiling,                            !- Surface Type
  ,                                       !- Construction Name
  {6b76c277-e3cb-40e6-995a-e89cba504102}, !- Space Name
  Surface,                                !- Outside Boundary Condition
  {5afa261e-fb5e-4180-a616-8bfbc4370b64}, !- Outside Boundary Condition Object
  NoSun,                                  !- Sun Exposure
  NoWind,                                 !- Wind Exposure
  ,                                       !- View Factor to Ground
  ,                                       !- Number of Vertices
  14.4257689431101, 0, 2.4384,            !- X,Y,Z Vertex 1 {m}
  14.4257689431101, 6.096, 2.4384,        !- X,Y,Z Vertex 2 {m}
  10.7681689431101, 6.096, 2.4384,        !- X,Y,Z Vertex 3 {m}
  10.7681689431101, 0, 2.4384;            !- X,Y,Z Vertex 4 {m}

OS:SpaceType,
  {db91e364-31a0-4cc0-bcf5-8bc18b2171a5}, !- Handle
  Space Type 1,                           !- Name
  ,                                       !- Default Construction Set Name
  ,                                       !- Default Schedule Set Name
  ,                                       !- Group Rendering Name
  ,                                       !- Design Specification Outdoor Air Object Name
  ,                                       !- Standards Building Type
  garage;                                 !- Standards Space Type

OS:Space,
  {ebed21a7-c2b9-4cb5-b50b-c2f0fc643940}, !- Handle
  living space,                           !- Name
  {7d0f60ad-57bb-4699-881a-3804a9da6940}, !- Space Type Name
  ,                                       !- Default Construction Set Name
  ,                                       !- Default Schedule Set Name
  -0,                                     !- Direction of Relative North {deg}
  0,                                      !- X Origin {m}
  0,                                      !- Y Origin {m}
  0,                                      !- Z Origin {m}
  ,                                       !- Building Story Name
  {783e9475-8136-4e35-98c8-6a3beae08149}, !- Thermal Zone Name
  ,                                       !- Part of Total Floor Area
  ,                                       !- Design Specification Outdoor Air Object Name
  {432eab06-c9e8-49c1-85ce-0181c0e93cd8}; !- Building Unit Name

OS:Surface,
  {5461b1ce-93f8-44d9-8ad6-097258c965d6}, !- Handle
  Surface 7,                              !- Name
  Floor,                                  !- Surface Type
  ,                                       !- Construction Name
  {ebed21a7-c2b9-4cb5-b50b-c2f0fc643940}, !- Space Name
  Foundation,                             !- Outside Boundary Condition
  ,                                       !- Outside Boundary Condition Object
  NoSun,                                  !- Sun Exposure
  NoWind,                                 !- Wind Exposure
  ,                                       !- View Factor to Ground
  ,                                       !- Number of Vertices
  0, 0, 0,                                !- X,Y,Z Vertex 1 {m}
  0, 7.21288447155505, 0,                 !- X,Y,Z Vertex 2 {m}
  14.4257689431101, 7.21288447155505, 0,  !- X,Y,Z Vertex 3 {m}
  14.4257689431101, 6.096, 0,             !- X,Y,Z Vertex 4 {m}
  10.7681689431101, 6.096, 0,             !- X,Y,Z Vertex 5 {m}
  10.7681689431101, 0, 0;                 !- X,Y,Z Vertex 6 {m}

OS:Surface,
  {463c22d5-5882-4282-9e1d-c090c549e04c}, !- Handle
  Surface 8,                              !- Name
  Wall,                                   !- Surface Type
  ,                                       !- Construction Name
  {ebed21a7-c2b9-4cb5-b50b-c2f0fc643940}, !- Space Name
  Outdoors,                               !- Outside Boundary Condition
  ,                                       !- Outside Boundary Condition Object
  SunExposed,                             !- Sun Exposure
  WindExposed,                            !- Wind Exposure
  ,                                       !- View Factor to Ground
  ,                                       !- Number of Vertices
  0, 7.21288447155505, 2.4384,            !- X,Y,Z Vertex 1 {m}
  0, 7.21288447155505, 0,                 !- X,Y,Z Vertex 2 {m}
  0, 0, 0,                                !- X,Y,Z Vertex 3 {m}
  0, 0, 2.4384;                           !- X,Y,Z Vertex 4 {m}

OS:Surface,
  {1637b35e-62e1-4091-b87c-e7f55f2b56ba}, !- Handle
  Surface 9,                              !- Name
  Wall,                                   !- Surface Type
  ,                                       !- Construction Name
  {ebed21a7-c2b9-4cb5-b50b-c2f0fc643940}, !- Space Name
  Outdoors,                               !- Outside Boundary Condition
  ,                                       !- Outside Boundary Condition Object
  SunExposed,                             !- Sun Exposure
  WindExposed,                            !- Wind Exposure
  ,                                       !- View Factor to Ground
  ,                                       !- Number of Vertices
  14.4257689431101, 7.21288447155505, 2.4384, !- X,Y,Z Vertex 1 {m}
  14.4257689431101, 7.21288447155505, 0,  !- X,Y,Z Vertex 2 {m}
  0, 7.21288447155505, 0,                 !- X,Y,Z Vertex 3 {m}
  0, 7.21288447155505, 2.4384;            !- X,Y,Z Vertex 4 {m}

OS:Surface,
  {ab7d9073-bc77-40ef-88e1-df5f3caa9ac3}, !- Handle
  Surface 10,                             !- Name
  Wall,                                   !- Surface Type
  ,                                       !- Construction Name
  {ebed21a7-c2b9-4cb5-b50b-c2f0fc643940}, !- Space Name
  Outdoors,                               !- Outside Boundary Condition
  ,                                       !- Outside Boundary Condition Object
  SunExposed,                             !- Sun Exposure
  WindExposed,                            !- Wind Exposure
  ,                                       !- View Factor to Ground
  ,                                       !- Number of Vertices
  14.4257689431101, 6.096, 2.4384,        !- X,Y,Z Vertex 1 {m}
  14.4257689431101, 6.096, 0,             !- X,Y,Z Vertex 2 {m}
  14.4257689431101, 7.21288447155505, 0,  !- X,Y,Z Vertex 3 {m}
  14.4257689431101, 7.21288447155505, 2.4384; !- X,Y,Z Vertex 4 {m}

OS:Surface,
  {4a4039aa-5693-4851-b113-4907d90da1d5}, !- Handle
  Surface 11,                             !- Name
  Wall,                                   !- Surface Type
  ,                                       !- Construction Name
  {ebed21a7-c2b9-4cb5-b50b-c2f0fc643940}, !- Space Name
  Surface,                                !- Outside Boundary Condition
  {3bd87549-05d0-4095-8f55-8ac3605b5446}, !- Outside Boundary Condition Object
  NoSun,                                  !- Sun Exposure
  NoWind,                                 !- Wind Exposure
  ,                                       !- View Factor to Ground
  ,                                       !- Number of Vertices
  10.7681689431101, 6.096, 2.4384,        !- X,Y,Z Vertex 1 {m}
  10.7681689431101, 6.096, 0,             !- X,Y,Z Vertex 2 {m}
  14.4257689431101, 6.096, 0,             !- X,Y,Z Vertex 3 {m}
  14.4257689431101, 6.096, 2.4384;        !- X,Y,Z Vertex 4 {m}

OS:Surface,
  {dbdf9faf-4ae2-4146-b0c6-357ef9223a75}, !- Handle
  Surface 12,                             !- Name
  Wall,                                   !- Surface Type
  ,                                       !- Construction Name
  {ebed21a7-c2b9-4cb5-b50b-c2f0fc643940}, !- Space Name
  Surface,                                !- Outside Boundary Condition
  {db8c1f45-5000-4393-9283-23281243a639}, !- Outside Boundary Condition Object
  NoSun,                                  !- Sun Exposure
  NoWind,                                 !- Wind Exposure
  ,                                       !- View Factor to Ground
  ,                                       !- Number of Vertices
  10.7681689431101, 0, 2.4384,            !- X,Y,Z Vertex 1 {m}
  10.7681689431101, 0, 0,                 !- X,Y,Z Vertex 2 {m}
  10.7681689431101, 6.096, 0,             !- X,Y,Z Vertex 3 {m}
  10.7681689431101, 6.096, 2.4384;        !- X,Y,Z Vertex 4 {m}

OS:Surface,
  {a97ce40c-9867-435d-9652-281ec753bc75}, !- Handle
  Surface 13,                             !- Name
  Wall,                                   !- Surface Type
  ,                                       !- Construction Name
  {ebed21a7-c2b9-4cb5-b50b-c2f0fc643940}, !- Space Name
  Outdoors,                               !- Outside Boundary Condition
  ,                                       !- Outside Boundary Condition Object
  SunExposed,                             !- Sun Exposure
  WindExposed,                            !- Wind Exposure
  ,                                       !- View Factor to Ground