!- NOTE: Auto-generated from /test/osw_files/SFD_2000sqft_2story_SL_GRG_UA_3Beds_2Baths_Denver_Furnace_CentralAC.osw

OS:Version,
  {80d4c172-e661-4727-a18a-0e6ba64be577}, !- Handle
  2.7.0;                                  !- Version Identifier

OS:Building,
  {66f4a3e9-a397-4b39-bede-f645778ac4df}, !- Handle
  Building 1,                             !- Name
  ,                                       !- Building Sector Type
  0,                                      !- North Axis {deg}
  ,                                       !- Nominal Floor to Floor Height {m}
  ,                                       !- Space Type Name
  ,                                       !- Default Construction Set Name
  ,                                       !- Default Schedule Set Name
  2,                                      !- Standards Number of Stories
  2,                                      !- Standards Number of Above Ground Stories
  ,                                       !- Standards Template
  singlefamilydetached,                   !- Standards Building Type
  1;                                      !- Standards Number of Living Units

OS:Facility,
  {b6dda312-41a9-46f6-b2bc-2e414d21f61f}; !- Handle

OS:Site,
  {bc7b5e34-1bd0-4f13-884d-34cb27c9931a}, !- Handle
  Denver Intl Ap_CO_USA,                  !- Name
  39.83,                                  !- Latitude {deg}
  -104.65,                                !- Longitude {deg}
  -7,                                     !- Time Zone {hr}
  1650,                                   !- Elevation {m}
  ;                                       !- Terrain

OS:SimulationControl,
  {a4329bb3-d63f-4b05-ba34-5fa82525ad6a}, !- Handle
  ,                                       !- Do Zone Sizing Calculation
  ,                                       !- Do System Sizing Calculation
  ,                                       !- Do Plant Sizing Calculation
  No;                                     !- Run Simulation for Sizing Periods

OS:Sizing:Parameters,
  {9b77fa52-d072-429f-a9bb-944c9f31a471}, !- Handle
  1.25,                                   !- Heating Sizing Factor
  1.15;                                   !- Cooling Sizing Factor

OS:Timestep,
  {7f6985e3-7cec-4357-a674-afbe61d45e0d}, !- Handle
  6;                                      !- Number of Timesteps per Hour

OS:ShadowCalculation,
  {a851f585-00b0-48e7-a199-6c405af50c71}, !- Handle
  20,                                     !- Calculation Frequency
  200;                                    !- Maximum Figures in Shadow Overlap Calculations

OS:HeatBalanceAlgorithm,
  {037b9392-e841-4214-9afc-5a9e545e1c0b}, !- Handle
  ConductionTransferFunction,             !- Algorithm
  200;                                    !- Surface Temperature Upper Limit {C}

OS:RunPeriod,
  {b19f88a8-f804-4c24-b569-e10146691a46}, !- Handle
  Run Period 1,                           !- Name
  1,                                      !- Begin Month
  1,                                      !- Begin Day of Month
  12,                                     !- End Month
  31,                                     !- End Day of Month
  ,                                       !- Use Weather File Holidays and Special Days
  ,                                       !- Use Weather File Daylight Saving Period
  ,                                       !- Apply Weekend Holiday Rule
  ,                                       !- Use Weather File Rain Indicators
  ,                                       !- Use Weather File Snow Indicators
  ;                                       !- Number of Times Runperiod to be Repeated

OS:LifeCycleCost:Parameters,
  {f4b4031b-c147-412d-bd64-09a4d2221a0c}, !- Handle
  ,                                       !- Analysis Type
  ,                                       !- Discounting Convention
  ,                                       !- Inflation Approach
  ,                                       !- Real Discount Rate
  ,                                       !- Nominal Discount Rate
  ,                                       !- Inflation
  ,                                       !- Base Date Month
  ,                                       !- Base Date Year
  ,                                       !- Service Date Month
  ,                                       !- Service Date Year
  ;                                       !- Length of Study Period in Years

OS:SurfaceConvectionAlgorithm:Outside,
  {5a0d469e-992d-442d-b7d5-632e5203d343}, !- Handle
  DOE-2;                                  !- Algorithm

OS:SurfaceConvectionAlgorithm:Inside,
  {c7e18249-3db7-4b62-8de4-d8d6824cfb39}, !- Handle
  TARP;                                   !- Algorithm

OS:ZoneCapacitanceMultiplier:ResearchSpecial,
  {4af63a07-d6db-47b2-9c32-250dd47bbe48}, !- Handle
  ,                                       !- Temperature Capacity Multiplier
  15,                                     !- Humidity Capacity Multiplier
  ;                                       !- Carbon Dioxide Capacity Multiplier

OS:ThermalZone,
  {ee01b8c9-55dd-411d-9153-a9375c61e9b2}, !- Handle
  living zone,                            !- Name
  ,                                       !- Multiplier
  ,                                       !- Ceiling Height {m}
  ,                                       !- Volume {m3}
  ,                                       !- Floor Area {m2}
  ,                                       !- Zone Inside Convection Algorithm
  ,                                       !- Zone Outside Convection Algorithm
  ,                                       !- Zone Conditioning Equipment List Name
  {588350ed-3f0f-48e1-9ff8-4082d2e0eb54}, !- Zone Air Inlet Port List
  {f11e8afb-03b5-4f9a-9218-5dbef9bb32c3}, !- Zone Air Exhaust Port List
  {4f6f18f3-d31c-47de-b6ce-2efb7b8b2f21}, !- Zone Air Node Name
  {faf219d1-5670-4066-a73b-c3486ae4a527}, !- Zone Return Air Port List
  ,                                       !- Primary Daylighting Control Name
  ,                                       !- Fraction of Zone Controlled by Primary Daylighting Control
  ,                                       !- Secondary Daylighting Control Name
  ,                                       !- Fraction of Zone Controlled by Secondary Daylighting Control
  ,                                       !- Illuminance Map Name
  ,                                       !- Group Rendering Name
  {e82a9389-be2f-4c3c-89db-7cb461385b21}, !- Thermostat Name
  No;                                     !- Use Ideal Air Loads

OS:Node,
  {022d5a07-71db-4c7c-b787-ac8d802cc3ec}, !- Handle
  Node 1,                                 !- Name
  {4f6f18f3-d31c-47de-b6ce-2efb7b8b2f21}, !- Inlet Port
  ;                                       !- Outlet Port

OS:Connection,
  {4f6f18f3-d31c-47de-b6ce-2efb7b8b2f21}, !- Handle
  {f0442090-a6fa-4786-8256-780dc4c5ea45}, !- Name
  {ee01b8c9-55dd-411d-9153-a9375c61e9b2}, !- Source Object
  11,                                     !- Outlet Port
  {022d5a07-71db-4c7c-b787-ac8d802cc3ec}, !- Target Object
  2;                                      !- Inlet Port

OS:PortList,
  {588350ed-3f0f-48e1-9ff8-4082d2e0eb54}, !- Handle
  {fdf44013-3e11-4922-bad0-2900b6652cf5}, !- Name
  {ee01b8c9-55dd-411d-9153-a9375c61e9b2}, !- HVAC Component
  {6b3fca6f-426b-4f9e-abbc-192dd599d087}, !- Port 1
  {b2c7eee1-5fb0-4fd9-a2f8-1d471b5aea3e}; !- Port 2

OS:PortList,
  {f11e8afb-03b5-4f9a-9218-5dbef9bb32c3}, !- Handle
  {b4762227-e934-462e-8649-dcd545b0cdf6}, !- Name
  {ee01b8c9-55dd-411d-9153-a9375c61e9b2}; !- HVAC Component

OS:PortList,
  {faf219d1-5670-4066-a73b-c3486ae4a527}, !- Handle
  {f0c73083-5cfe-4e2d-9da9-f3be09febbd1}, !- Name
  {ee01b8c9-55dd-411d-9153-a9375c61e9b2}, !- HVAC Component
  {d1332e3e-91c3-4d77-b9c9-2a9bb5b8ab78}, !- Port 1
  {51e64181-d61f-4cde-9dab-22deadc55697}; !- Port 2

OS:Sizing:Zone,
  {ced54f6d-2e53-4163-b921-054229d17322}, !- Handle
  {ee01b8c9-55dd-411d-9153-a9375c61e9b2}, !- Zone or ZoneList Name
  SupplyAirTemperature,                   !- Zone Cooling Design Supply Air Temperature Input Method
  14,                                     !- Zone Cooling Design Supply Air Temperature {C}
  11.11,                                  !- Zone Cooling Design Supply Air Temperature Difference {deltaC}
  SupplyAirTemperature,                   !- Zone Heating Design Supply Air Temperature Input Method
  40,                                     !- Zone Heating Design Supply Air Temperature {C}
  11.11,                                  !- Zone Heating Design Supply Air Temperature Difference {deltaC}
  0.0085,                                 !- Zone Cooling Design Supply Air Humidity Ratio {kg-H2O/kg-air}
  0.008,                                  !- Zone Heating Design Supply Air Humidity Ratio {kg-H2O/kg-air}
  ,                                       !- Zone Heating Sizing Factor
  ,                                       !- Zone Cooling Sizing Factor
  DesignDay,                              !- Cooling Design Air Flow Method
  ,                                       !- Cooling Design Air Flow Rate {m3/s}
  ,                                       !- Cooling Minimum Air Flow per Zone Floor Area {m3/s-m2}
  ,                                       !- Cooling Minimum Air Flow {m3/s}
  ,                                       !- Cooling Minimum Air Flow Fraction
  DesignDay,                              !- Heating Design Air Flow Method
  ,                                       !- Heating Design Air Flow Rate {m3/s}
  ,                                       !- Heating Maximum Air Flow per Zone Floor Area {m3/s-m2}
  ,                                       !- Heating Maximum Air Flow {m3/s}
  ,                                       !- Heating Maximum Air Flow Fraction
  ,                                       !- Design Zone Air Distribution Effectiveness in Cooling Mode
  ,                                       !- Design Zone Air Distribution Effectiveness in Heating Mode
  No,                                     !- Account for Dedicated Outdoor Air System
  NeutralSupplyAir,                       !- Dedicated Outdoor Air System Control Strategy
  autosize,                               !- Dedicated Outdoor Air Low Setpoint Temperature for Design {C}
  autosize;                               !- Dedicated Outdoor Air High Setpoint Temperature for Design {C}

OS:ZoneHVAC:EquipmentList,
  {a78c0f5f-d146-4d35-8a0f-81cca72cd14d}, !- Handle
  Zone HVAC Equipment List 1,             !- Name
  {ee01b8c9-55dd-411d-9153-a9375c61e9b2}, !- Thermal Zone
  SequentialLoad,                         !- Load Distribution Scheme
  {78dc9866-d039-48b6-a0ca-ac02e8f6702f}, !- Zone Equipment 1
  1,                                      !- Zone Equipment Cooling Sequence 1
  1,                                      !- Zone Equipment Heating or No-Load Sequence 1
  {7dc5dba2-8f88-46b2-bbd0-5d6c4851b30f}, !- Zone Equipment 2
  2,                                      !- Zone Equipment Cooling Sequence 2
  2;                                      !- Zone Equipment Heating or No-Load Sequence 2

OS:ThermalZone,
  {8bd01afc-c6be-4a30-a839-5ebeed985442}, !- Handle
  garage zone,                            !- Name
  ,                                       !- Multiplier
  ,                                       !- Ceiling Height {m}
  ,                                       !- Volume {m3}
  ,                                       !- Floor Area {m2}
  ,                                       !- Zone Inside Convection Algorithm
  ,                                       !- Zone Outside Convection Algorithm
  ,                                       !- Zone Conditioning Equipment List Name
  {61e40e5d-c021-4faf-b4c0-bc248f21187a}, !- Zone Air Inlet Port List
  {36de9061-2e34-4ff4-acc6-8c7426856c51}, !- Zone Air Exhaust Port List
  {12472ff3-9d1d-4a61-94bd-c45006488de2}, !- Zone Air Node Name
  {fc2fa25c-0420-4bef-a662-8bc3b10c368e}, !- Zone Return Air Port List
  ,                                       !- Primary Daylighting Control Name
  ,                                       !- Fraction of Zone Controlled by Primary Daylighting Control
  ,                                       !- Secondary Daylighting Control Name
  ,                                       !- Fraction of Zone Controlled by Secondary Daylighting Control
  ,                                       !- Illuminance Map Name
  ,                                       !- Group Rendering Name
  ,                                       !- Thermostat Name
  No;                                     !- Use Ideal Air Loads

OS:Node,
  {96d500df-d596-4e8e-aeb5-cd89b09bfcbb}, !- Handle
  Node 2,                                 !- Name
  {12472ff3-9d1d-4a61-94bd-c45006488de2}, !- Inlet Port
  ;                                       !- Outlet Port

OS:Connection,
  {12472ff3-9d1d-4a61-94bd-c45006488de2}, !- Handle
  {d93572ce-0414-4f14-a272-cc991dd92e94}, !- Name
  {8bd01afc-c6be-4a30-a839-5ebeed985442}, !- Source Object
  11,                                     !- Outlet Port
  {96d500df-d596-4e8e-aeb5-cd89b09bfcbb}, !- Target Object
  2;                                      !- Inlet Port

OS:PortList,
  {61e40e5d-c021-4faf-b4c0-bc248f21187a}, !- Handle
  {af4831f2-fc4b-4d0c-acbe-1ce4ad76c5dd}, !- Name
  {8bd01afc-c6be-4a30-a839-5ebeed985442}; !- HVAC Component

OS:PortList,
  {36de9061-2e34-4ff4-acc6-8c7426856c51}, !- Handle
  {13215b29-69e3-4f0b-9372-eb5dcbc5ec24}, !- Name
  {8bd01afc-c6be-4a30-a839-5ebeed985442}; !- HVAC Component

OS:PortList,
  {fc2fa25c-0420-4bef-a662-8bc3b10c368e}, !- Handle
  {1228ec43-d862-49c1-acd0-7d8cc766780c}, !- Name
  {8bd01afc-c6be-4a30-a839-5ebeed985442}; !- HVAC Component

OS:Sizing:Zone,
  {3b18013b-6938-4bd2-866e-e06f281c82d6}, !- Handle
  {8bd01afc-c6be-4a30-a839-5ebeed985442}, !- Zone or ZoneList Name
  SupplyAirTemperature,                   !- Zone Cooling Design Supply Air Temperature Input Method
  14,                                     !- Zone Cooling Design Supply Air Temperature {C}
  11.11,                                  !- Zone Cooling Design Supply Air Temperature Difference {deltaC}
  SupplyAirTemperature,                   !- Zone Heating Design Supply Air Temperature Input Method
  40,                                     !- Zone Heating Design Supply Air Temperature {C}
  11.11,                                  !- Zone Heating Design Supply Air Temperature Difference {deltaC}
  0.0085,                                 !- Zone Cooling Design Supply Air Humidity Ratio {kg-H2O/kg-air}
  0.008,                                  !- Zone Heating Design Supply Air Humidity Ratio {kg-H2O/kg-air}
  ,                                       !- Zone Heating Sizing Factor
  ,                                       !- Zone Cooling Sizing Factor
  DesignDay,                              !- Cooling Design Air Flow Method
  ,                                       !- Cooling Design Air Flow Rate {m3/s}
  ,                                       !- Cooling Minimum Air Flow per Zone Floor Area {m3/s-m2}
  ,                                       !- Cooling Minimum Air Flow {m3/s}
  ,                                       !- Cooling Minimum Air Flow Fraction
  DesignDay,                              !- Heating Design Air Flow Method
  ,                                       !- Heating Design Air Flow Rate {m3/s}
  ,                                       !- Heating Maximum Air Flow per Zone Floor Area {m3/s-m2}
  ,                                       !- Heating Maximum Air Flow {m3/s}
  ,                                       !- Heating Maximum Air Flow Fraction
  ,                                       !- Design Zone Air Distribution Effectiveness in Cooling Mode
  ,                                       !- Design Zone Air Distribution Effectiveness in Heating Mode
  No,                                     !- Account for Dedicated Outdoor Air System
  NeutralSupplyAir,                       !- Dedicated Outdoor Air System Control Strategy
  autosize,                               !- Dedicated Outdoor Air Low Setpoint Temperature for Design {C}
  autosize;                               !- Dedicated Outdoor Air High Setpoint Temperature for Design {C}

OS:ZoneHVAC:EquipmentList,
  {26df2538-a389-40dd-8fdb-42b6330a2a2d}, !- Handle
  Zone HVAC Equipment List 2,             !- Name
  {8bd01afc-c6be-4a30-a839-5ebeed985442}; !- Thermal Zone

OS:Space,
  {3029ec83-25f0-4a4b-8cf6-c07752d62480}, !- Handle
  garage space,                           !- Name
  {7e32fceb-4771-400f-a2fd-e3ee824b68ef}, !- Space Type Name
  ,                                       !- Default Construction Set Name
  ,                                       !- Default Schedule Set Name
  -0,                                     !- Direction of Relative North {deg}
  0,                                      !- X Origin {m}
  0,                                      !- Y Origin {m}
  0,                                      !- Z Origin {m}
  ,                                       !- Building Story Name
  {8bd01afc-c6be-4a30-a839-5ebeed985442}; !- Thermal Zone Name

OS:Surface,
  {d4928f36-54b9-45b4-b8e1-9e7c98d5840b}, !- Handle
  Surface 1,                              !- Name
  Floor,                                  !- Surface Type
  ,                                       !- Construction Name
  {3029ec83-25f0-4a4b-8cf6-c07752d62480}, !- Space Name
  Foundation,                             !- Outside Boundary Condition
  ,                                       !- Outside Boundary Condition Object
  NoSun,                                  !- Sun Exposure
  NoWind,                                 !- Wind Exposure
  ,                                       !- View Factor to Ground
  ,                                       !- Number of Vertices
  10.7681689431101, 0, 0,                 !- X,Y,Z Vertex 1 {m}
  10.7681689431101, 6.096, 0,             !- X,Y,Z Vertex 2 {m}
  14.4257689431101, 6.096, 0,             !- X,Y,Z Vertex 3 {m}
  14.4257689431101, 0, 0;                 !- X,Y,Z Vertex 4 {m}

OS:Surface,
  {c460943e-f907-4530-8006-9028b068a433}, !- Handle
  Surface 2,                              !- Name
  Wall,                                   !- Surface Type
  ,                                       !- Construction Name
  {3029ec83-25f0-4a4b-8cf6-c07752d62480}, !- Space Name
  Surface,                                !- Outside Boundary Condition
  {e3732bd9-6f6c-4b06-8240-88e6dbc5d50d}, !- Outside Boundary Condition Object
  NoSun,                                  !- Sun Exposure
  NoWind,                                 !- Wind Exposure
  ,                                       !- View Factor to Ground
  ,                                       !- Number of Vertices
  10.7681689431101, 6.096, 2.4384,        !- X,Y,Z Vertex 1 {m}
  10.7681689431101, 6.096, 0,             !- X,Y,Z Vertex 2 {m}
  10.7681689431101, 0, 0,                 !- X,Y,Z Vertex 3 {m}
  10.7681689431101, 0, 2.4384;            !- X,Y,Z Vertex 4 {m}

OS:Surface,
  {dbca966e-a5b4-4aca-b3aa-ecf4a4439250}, !- Handle
  Surface 3,                              !- Name
  Wall,                                   !- Surface Type
  ,                                       !- Construction Name
  {3029ec83-25f0-4a4b-8cf6-c07752d62480}, !- Space Name
  Surface,                                !- Outside Boundary Condition
  {dd8f2051-c1b8-4704-bcb2-c845b252f17f}, !- Outside Boundary Condition Object
  NoSun,                                  !- Sun Exposure
  NoWind,                                 !- Wind Exposure
  ,                                       !- View Factor to Ground
  ,                                       !- Number of Vertices
  14.4257689431101, 6.096, 2.4384,        !- X,Y,Z Vertex 1 {m}
  14.4257689431101, 6.096, 0,             !- X,Y,Z Vertex 2 {m}
  10.7681689431101, 6.096, 0,             !- X,Y,Z Vertex 3 {m}
  10.7681689431101, 6.096, 2.4384;        !- X,Y,Z Vertex 4 {m}

OS:Surface,
  {cb5828bb-3b3e-4db8-b3b9-dda5ea9499e4}, !- Handle
  Surface 4,                              !- Name
  Wall,                                   !- Surface Type
  ,                                       !- Construction Name
  {3029ec83-25f0-4a4b-8cf6-c07752d62480}, !- Space Name
  Outdoors,                               !- Outside Boundary Condition
  ,                                       !- Outside Boundary Condition Object
  SunExposed,                             !- Sun Exposure
  WindExposed,                            !- Wind Exposure
  ,                                       !- View Factor to Ground
  ,                                       !- Number of Vertices
  14.4257689431101, 0, 2.4384,            !- X,Y,Z Vertex 1 {m}
  14.4257689431101, 0, 0,                 !- X,Y,Z Vertex 2 {m}
  14.4257689431101, 6.096, 0,             !- X,Y,Z Vertex 3 {m}
  14.4257689431101, 6.096, 2.4384;        !- X,Y,Z Vertex 4 {m}

OS:Surface,
  {887dbe4e-5c2f-4f0a-8be5-69fb057210b6}, !- Handle
  Surface 5,                              !- Name
  Wall,                                   !- Surface Type
  ,                                       !- Construction Name
  {3029ec83-25f0-4a4b-8cf6-c07752d62480}, !- Space Name
  Outdoors,                               !- Outside Boundary Condition
  ,                                       !- Outside Boundary Condition Object
  SunExposed,                             !- Sun Exposure
  WindExposed,                            !- Wind Exposure
  ,                                       !- View Factor to Ground
  ,                                       !- Number of Vertices
  10.7681689431101, 0, 2.4384,            !- X,Y,Z Vertex 1 {m}
  10.7681689431101, 0, 0,                 !- X,Y,Z Vertex 2 {m}
  14.4257689431101, 0, 0,                 !- X,Y,Z Vertex 3 {m}
  14.4257689431101, 0, 2.4384;            !- X,Y,Z Vertex 4 {m}

OS:Surface,
  {339c1e16-268f-4a72-9164-98b9dad93784}, !- Handle
  Surface 6,                              !- Name
  RoofCeiling,                            !- Surface Type
  ,                                       !- Construction Name
  {3029ec83-25f0-4a4b-8cf6-c07752d62480}, !- Space Name
  Surface,                                !- Outside Boundary Condition
  {ee39f930-87fc-4203-a5ba-2f5213d11a57}, !- Outside Boundary Condition Object
  NoSun,                                  !- Sun Exposure
  NoWind,                                 !- Wind Exposure
  ,                                       !- View Factor to Ground
  ,                                       !- Number of Vertices
  14.4257689431101, 0, 2.4384,            !- X,Y,Z Vertex 1 {m}
  14.4257689431101, 6.096, 2.4384,        !- X,Y,Z Vertex 2 {m}
  10.7681689431101, 6.096, 2.4384,        !- X,Y,Z Vertex 3 {m}
  10.7681689431101, 0, 2.4384;            !- X,Y,Z Vertex 4 {m}

OS:SpaceType,
  {7e32fceb-4771-400f-a2fd-e3ee824b68ef}, !- Handle
  Space Type 1,                           !- Name
  ,                                       !- Default Construction Set Name
  ,                                       !- Default Schedule Set Name
  ,                                       !- Group Rendering Name
  ,                                       !- Design Specification Outdoor Air Object Name
  ,                                       !- Standards Template
  ,                                       !- Standards Building Type
  garage;                                 !- Standards Space Type

OS:Space,
  {da96ee6a-c32d-4c84-b7ec-4cdf6f5b9e37}, !- Handle
  living space,                           !- Name
  {813d06b7-2286-4037-b8ed-19273f29f3f9}, !- Space Type Name
  ,                                       !- Default Construction Set Name
  ,                                       !- Default Schedule Set Name
  -0,                                     !- Direction of Relative North {deg}
  0,                                      !- X Origin {m}
  0,                                      !- Y Origin {m}
  0,                                      !- Z Origin {m}
  ,                                       !- Building Story Name
  {ee01b8c9-55dd-411d-9153-a9375c61e9b2}, !- Thermal Zone Name
  ,                                       !- Part of Total Floor Area
  ,                                       !- Design Specification Outdoor Air Object Name
  {9b493188-0179-4dc0-9948-697c11a0182f}; !- Building Unit Name

OS:Surface,
  {454c72a6-f22d-4204-8fdd-62c0c2d35a2f}, !- Handle
  Surface 7,                              !- Name
  Floor,                                  !- Surface Type
  ,                                       !- Construction Name
  {da96ee6a-c32d-4c84-b7ec-4cdf6f5b9e37}, !- Space Name
  Foundation,                             !- Outside Boundary Condition
  ,                                       !- Outside Boundary Condition Object
  NoSun,                                  !- Sun Exposure
  NoWind,                                 !- Wind Exposure
  ,                                       !- View Factor to Ground
  ,                                       !- Number of Vertices
  0, 0, 0,                                !- X,Y,Z Vertex 1 {m}
  0, 7.21288447155505, 0,                 !- X,Y,Z Vertex 2 {m}
  14.4257689431101, 7.21288447155505, 0,  !- X,Y,Z Vertex 3 {m}
  14.4257689431101, 6.096, 0,             !- X,Y,Z Vertex 4 {m}
  10.7681689431101, 6.096, 0,             !- X,Y,Z Vertex 5 {m}
  10.7681689431101, 0, 0;                 !- X,Y,Z Vertex 6 {m}

OS:Surface,
  {5b134f1d-76d6-401e-8f29-a26da0f705d3}, !- Handle
  Surface 8,                              !- Name
  Wall,                                   !- Surface Type
  ,                                       !- Construction Name
  {da96ee6a-c32d-4c84-b7ec-4cdf6f5b9e37}, !- Space Name
  Outdoors,                               !- Outside Boundary Condition
  ,                                       !- Outside Boundary Condition Object
  SunExposed,                             !- Sun Exposure
  WindExposed,                            !- Wind Exposure
  ,                                       !- View Factor to Ground
  ,                                       !- Number of Vertices
  0, 7.21288447155505, 2.4384,            !- X,Y,Z Vertex 1 {m}
  0, 7.21288447155505, 0,                 !- X,Y,Z Vertex 2 {m}
  0, 0, 0,                                !- X,Y,Z Vertex 3 {m}
  0, 0, 2.4384;                           !- X,Y,Z Vertex 4 {m}

OS:Surface,
  {6d7d53d4-7db9-40b9-8fce-e6f12f6b5cda}, !- Handle
  Surface 9,                              !- Name
  Wall,                                   !- Surface Type
  ,                                       !- Construction Name
  {da96ee6a-c32d-4c84-b7ec-4cdf6f5b9e37}, !- Space Name
  Outdoors,                               !- Outside Boundary Condition
  ,                                       !- Outside Boundary Condition Object
  SunExposed,                             !- Sun Exposure
  WindExposed,                            !- Wind Exposure
  ,                                       !- View Factor to Ground
  ,                                       !- Number of Vertices
  14.4257689431101, 7.21288447155505, 2.4384, !- X,Y,Z Vertex 1 {m}
  14.4257689431101, 7.21288447155505, 0,  !- X,Y,Z Vertex 2 {m}
  0, 7.21288447155505, 0,                 !- X,Y,Z Vertex 3 {m}
  0, 7.21288447155505, 2.4384;            !- X,Y,Z Vertex 4 {m}

OS:Surface,
  {781ee878-be1c-4ef5-8850-e89bcf68cb88}, !- Handle
  Surface 10,                             !- Name
  Wall,                                   !- Surface Type
  ,                                       !- Construction Name
  {da96ee6a-c32d-4c84-b7ec-4cdf6f5b9e37}, !- Space Name
  Outdoors,                               !- Outside Boundary Condition
  ,                                       !- Outside Boundary Condition Object
  SunExposed,                             !- Sun Exposure
  WindExposed,                            !- Wind Exposure
  ,                                       !- View Factor to Ground
  ,                                       !- Number of Vertices
  14.4257689431101, 6.096, 2.4384,        !- X,Y,Z Vertex 1 {m}
  14.4257689431101, 6.096, 0,             !- X,Y,Z Vertex 2 {m}
  14.4257689431101, 7.21288447155505, 0,  !- X,Y,Z Vertex 3 {m}
  14.4257689431101, 7.21288447155505, 2.4384; !- X,Y,Z Vertex 4 {m}

OS:Surface,
  {dd8f2051-c1b8-4704-bcb2-c845b252f17f}, !- Handle
  Surface 11,                             !- Name
  Wall,                                   !- Surface Type
  ,                                       !- Construction Name
  {da96ee6a-c32d-4c84-b7ec-4cdf6f5b9e37}, !- Space Name
  Surface,                                !- Outside Boundary Condition
  {dbca966e-a5b4-4aca-b3aa-ecf4a4439250}, !- Outside Boundary Condition Object
  NoSun,                                  !- Sun Exposure
  NoWind,                                 !- Wind Exposure
  ,                                       !- View Factor to Ground
  ,                                       !- Number of Vertices
  10.7681689431101, 6.096, 2.4384,        !- X,Y,Z Vertex 1 {m}
  10.7681689431101, 6.096, 0,             !- X,Y,Z Vertex 2 {m}
  14.4257689431101, 6.096, 0,             !- X,Y,Z Vertex 3 {m}
  14.4257689431101, 6.096, 2.4384;        !- X,Y,Z Vertex 4 {m}

OS:Surface,
  {e3732bd9-6f6c-4b06-8240-88e6dbc5d50d}, !- Handle
  Surface 12,                             !- Name
  Wall,                                   !- Surface Type
  ,                                       !- Construction Name
  {da96ee6a-c32d-4c84-b7ec-4cdf6f5b9e37}, !- Space Name
  Surface,                                !- Outside Boundary Condition
  {c460943e-f907-4530-8006-9028b068a433}, !- Outside Boundary Condition Object
  NoSun,                                  !- Sun Exposure
  NoWind,                                 !- Wind Exposure
  ,                                       !- View Factor to Ground
  ,                                       !- Number of Vertices
  10.7681689431101, 0, 2.4384,            !- X,Y,Z Vertex 1 {m}