!- NOTE: Auto-generated from /test/osw_files/SFD_2000sqft_2story_SL_GRG_FR_3Beds_2Baths_Denver_Furnace_CentralAC.osw

OS:Version,
  {f2bf214d-d023-4c9b-b502-077f6300dcc8}, !- Handle
  2.4.1;                                  !- Version Identifier

OS:Building,
  {bf305633-c5a1-4881-9edf-ca5e1a8e1274}, !- Handle
  Building,                               !- Name
  ,                                       !- Building Sector Type
  ,                                       !- North Axis {deg}
  ,                                       !- Nominal Floor to Floor Height {m}
  ,                                       !- Space Type Name
  ,                                       !- Default Construction Set Name
  ,                                       !- Default Schedule Set Name
  3,                                      !- Standards Number of Stories
  3,                                      !- Standards Number of Above Ground Stories
  singlefamilydetached,                   !- Standards Building Type
  1;                                      !- Standards Number of Living Units

OS:YearDescription,
  {513d8dda-86cb-442a-b01c-1f7f0e0ac70e}; !- Handle

OS:SimulationControl,
  {2c487a4c-bac9-4ac5-b669-1e49d9da7c2b}, !- Handle
  ,                                       !- Do Zone Sizing Calculation
  ,                                       !- Do System Sizing Calculation
  ,                                       !- Do Plant Sizing Calculation
  No,                                     !- Run Simulation for Sizing Periods
  ;                                       !- Run Simulation for Weather File Run Periods

OS:Timestep,
  {4ebc9f1e-4707-402e-9844-67eb1ffbd522}, !- Handle
  6;                                      !- Number of Timesteps per Hour

OS:RunPeriod,
  {28df894d-6af9-4fb8-8f56-df1753344aa3}, !- Handle
  Run Period,                             !- Name
  1,                                      !- Begin Month
  1,                                      !- Begin Day of Month
  12,                                     !- End Month
  31,                                     !- End Day of Month
  ,                                       !- Use Weather File Holidays and Special Days
  ,                                       !- Use Weather File Daylight Saving Period
  ,                                       !- Apply Weekend Holiday Rule
  ,                                       !- Use Weather File Rain Indicators
  ,                                       !- Use Weather File Snow Indicators
  ;                                       !- Number of Times Runperiod to be Repeated

OS:Sizing:Parameters,
  {dde5af6f-7923-4600-a28a-7556673a0266}, !- Handle
  1.0,                                    !- Heating Sizing Factor
  1.0;                                    !- Cooling Sizing Factor

OS:ShadowCalculation,
  {ca758bea-4416-4626-9bba-3d8795c79bd6}, !- Handle
  20,                                     !- Calculation Frequency
  200;                                    !- Maximum Figures in Shadow Overlap Calculations

OS:SurfaceConvectionAlgorithm:Inside,
  {aaabfc36-718a-4ab0-b622-f186ebb45230}, !- Handle
  TARP;                                   !- Algorithm

OS:SurfaceConvectionAlgorithm:Outside,
  {9a0a9f6f-4bbd-4b12-a121-9492a1fcd7d6}, !- Handle
  DOE-2;                                  !- Algorithm

OS:HeatBalanceAlgorithm,
  {9d93e563-e1e0-46d7-9e39-d1c8aceb7212}, !- Handle
  ConductionTransferFunction,             !- Algorithm
  200;                                    !- Surface Temperature Upper Limit {C}

OS:ZoneCapacitanceMultiplier:ResearchSpecial,
  {6bfced16-b16f-47f6-8223-f7e267d75d19}, !- Handle
  ,                                       !- Temperature Capacity Multiplier
  15,                                     !- Humidity Capacity Multiplier
  ;                                       !- Carbon Dioxide Capacity Multiplier

OS:ThermalZone,
  {02fc23eb-6e71-4546-9a8b-7f67a286afa5}, !- Handle
  living zone,                            !- Name
  ,                                       !- Multiplier
  ,                                       !- Ceiling Height {m}
  ,                                       !- Volume {m3}
  ,                                       !- Floor Area {m2}
  ,                                       !- Zone Inside Convection Algorithm
  ,                                       !- Zone Outside Convection Algorithm
  ,                                       !- Zone Conditioning Equipment List Name
  {94a800ac-0ed6-488e-b733-fb4a7591f3c4}, !- Zone Air Inlet Port List
  {73bd8864-89d9-4895-9119-b47bf0bdcf50}, !- Zone Air Exhaust Port List
  {be30891e-fb63-4ba6-b6a9-7f901e52d85a}, !- Zone Air Node Name
  {a10650bb-f44c-46b8-9617-1d0312109c75}, !- Zone Return Air Node Name
  ,                                       !- Primary Daylighting Control Name
  ,                                       !- Fraction of Zone Controlled by Primary Daylighting Control
  ,                                       !- Secondary Daylighting Control Name
  ,                                       !- Fraction of Zone Controlled by Secondary Daylighting Control
  ,                                       !- Illuminance Map Name
  ,                                       !- Group Rendering Name
  {db03591d-4b95-4b2f-ace0-0e48efbf956d}, !- Thermostat Name
  No;                                     !- Use Ideal Air Loads

OS:Node,
  {1bef28f9-055a-44aa-97f8-d05cdd571f74}, !- Handle
  Node 1,                                 !- Name
  {be30891e-fb63-4ba6-b6a9-7f901e52d85a}, !- Inlet Port
  ;                                       !- Outlet Port

OS:Connection,
  {be30891e-fb63-4ba6-b6a9-7f901e52d85a}, !- Handle
  {899fa6c1-866a-4845-b659-66f22b96fc2c}, !- Name
  {02fc23eb-6e71-4546-9a8b-7f67a286afa5}, !- Source Object
  11,                                     !- Outlet Port
  {1bef28f9-055a-44aa-97f8-d05cdd571f74}, !- Target Object
  2;                                      !- Inlet Port

OS:PortList,
  {94a800ac-0ed6-488e-b733-fb4a7591f3c4}, !- Handle
  {21c1e3b8-612c-4659-b401-e19a06110c45}, !- Name
  {02fc23eb-6e71-4546-9a8b-7f67a286afa5}, !- HVAC Component
  {f9d55219-e90a-48b1-bae0-8b95b12a5b0e}; !- Port 1

OS:PortList,
  {73bd8864-89d9-4895-9119-b47bf0bdcf50}, !- Handle
  {ac6ed41b-06ef-42bc-b137-46ec4fd0beb8}, !- Name
  {02fc23eb-6e71-4546-9a8b-7f67a286afa5}; !- HVAC Component

OS:Sizing:Zone,
  {df014c40-55c1-40ff-9460-5530b7865d6e}, !- Handle
  {02fc23eb-6e71-4546-9a8b-7f67a286afa5}, !- Zone or ZoneList Name
  SupplyAirTemperature,                   !- Zone Cooling Design Supply Air Temperature Input Method
  14,                                     !- Zone Cooling Design Supply Air Temperature {C}
  11.11,                                  !- Zone Cooling Design Supply Air Temperature Difference {deltaC}
  SupplyAirTemperature,                   !- Zone Heating Design Supply Air Temperature Input Method
  40,                                     !- Zone Heating Design Supply Air Temperature {C}
  11.11,                                  !- Zone Heating Design Supply Air Temperature Difference {deltaC}
  0.0085,                                 !- Zone Cooling Design Supply Air Humidity Ratio {kg-H2O/kg-air}
  0.008,                                  !- Zone Heating Design Supply Air Humidity Ratio {kg-H2O/kg-air}
  ,                                       !- Zone Heating Sizing Factor
  ,                                       !- Zone Cooling Sizing Factor
  DesignDay,                              !- Cooling Design Air Flow Method
  ,                                       !- Cooling Design Air Flow Rate {m3/s}
  ,                                       !- Cooling Minimum Air Flow per Zone Floor Area {m3/s-m2}
  ,                                       !- Cooling Minimum Air Flow {m3/s}
  ,                                       !- Cooling Minimum Air Flow Fraction
  DesignDay,                              !- Heating Design Air Flow Method
  ,                                       !- Heating Design Air Flow Rate {m3/s}
  ,                                       !- Heating Maximum Air Flow per Zone Floor Area {m3/s-m2}
  ,                                       !- Heating Maximum Air Flow {m3/s}
  ,                                       !- Heating Maximum Air Flow Fraction
  ,                                       !- Design Zone Air Distribution Effectiveness in Cooling Mode
  ,                                       !- Design Zone Air Distribution Effectiveness in Heating Mode
  No,                                     !- Account for Dedicated Outdoor Air System
  NeutralSupplyAir,                       !- Dedicated Outdoor Air System Control Strategy
  autosize,                               !- Dedicated Outdoor Air Low Setpoint Temperature for Design {C}
  autosize;                               !- Dedicated Outdoor Air High Setpoint Temperature for Design {C}

OS:ZoneHVAC:EquipmentList,
  {b05d7344-11be-4195-91ff-7f9804be272c}, !- Handle
  Zone HVAC Equipment List 1,             !- Name
  {02fc23eb-6e71-4546-9a8b-7f67a286afa5}, !- Thermal Zone
  {07de2920-0753-457b-913a-fbe2bf5eeaa7}, !- Zone Equipment 1
  1,                                      !- Zone Equipment Cooling Sequence 1
  1;                                      !- Zone Equipment Heating or No-Load Sequence 1

OS:ThermalZone,
  {61ffeef6-7d04-4d4f-906b-4a5d6e62b98e}, !- Handle
  garage zone,                            !- Name
  ,                                       !- Multiplier
  ,                                       !- Ceiling Height {m}
  ,                                       !- Volume {m3}
  ,                                       !- Floor Area {m2}
  ,                                       !- Zone Inside Convection Algorithm
  ,                                       !- Zone Outside Convection Algorithm
  ,                                       !- Zone Conditioning Equipment List Name
  {43f62ee5-f7ca-4497-bec2-58b8ee0446be}, !- Zone Air Inlet Port List
  {0c65b439-fb7d-4393-aef2-3c0b6fcbf10f}, !- Zone Air Exhaust Port List
  {b5874e67-202e-446e-962c-6249e0834829}, !- Zone Air Node Name
  ,                                       !- Zone Return Air Node Name
  ,                                       !- Primary Daylighting Control Name
  ,                                       !- Fraction of Zone Controlled by Primary Daylighting Control
  ,                                       !- Secondary Daylighting Control Name
  ,                                       !- Fraction of Zone Controlled by Secondary Daylighting Control
  ,                                       !- Illuminance Map Name
  ,                                       !- Group Rendering Name
  ,                                       !- Thermostat Name
  No;                                     !- Use Ideal Air Loads

OS:Node,
  {f89db57b-d7f2-40a0-b4e2-286099631880}, !- Handle
  Node 2,                                 !- Name
  {b5874e67-202e-446e-962c-6249e0834829}, !- Inlet Port
  ;                                       !- Outlet Port

OS:Connection,
  {b5874e67-202e-446e-962c-6249e0834829}, !- Handle
  {45b592c2-e143-48f9-a48a-df9178ac6022}, !- Name
  {61ffeef6-7d04-4d4f-906b-4a5d6e62b98e}, !- Source Object
  11,                                     !- Outlet Port
  {f89db57b-d7f2-40a0-b4e2-286099631880}, !- Target Object
  2;                                      !- Inlet Port

OS:PortList,
  {43f62ee5-f7ca-4497-bec2-58b8ee0446be}, !- Handle
  {1092de48-810f-4147-9d26-befec4afc442}, !- Name
  {61ffeef6-7d04-4d4f-906b-4a5d6e62b98e}; !- HVAC Component

OS:PortList,
  {0c65b439-fb7d-4393-aef2-3c0b6fcbf10f}, !- Handle
  {a03c87bc-f4a9-4faf-957f-dec28f1a3178}, !- Name
  {61ffeef6-7d04-4d4f-906b-4a5d6e62b98e}; !- HVAC Component

OS:Sizing:Zone,
  {3e003ed5-b3ee-4489-baaa-2fc4e4c92da4}, !- Handle
  {61ffeef6-7d04-4d4f-906b-4a5d6e62b98e}, !- Zone or ZoneList Name
  SupplyAirTemperature,                   !- Zone Cooling Design Supply Air Temperature Input Method
  14,                                     !- Zone Cooling Design Supply Air Temperature {C}
  11.11,                                  !- Zone Cooling Design Supply Air Temperature Difference {deltaC}
  SupplyAirTemperature,                   !- Zone Heating Design Supply Air Temperature Input Method
  40,                                     !- Zone Heating Design Supply Air Temperature {C}
  11.11,                                  !- Zone Heating Design Supply Air Temperature Difference {deltaC}
  0.0085,                                 !- Zone Cooling Design Supply Air Humidity Ratio {kg-H2O/kg-air}
  0.008,                                  !- Zone Heating Design Supply Air Humidity Ratio {kg-H2O/kg-air}
  ,                                       !- Zone Heating Sizing Factor
  ,                                       !- Zone Cooling Sizing Factor
  DesignDay,                              !- Cooling Design Air Flow Method
  ,                                       !- Cooling Design Air Flow Rate {m3/s}
  ,                                       !- Cooling Minimum Air Flow per Zone Floor Area {m3/s-m2}
  ,                                       !- Cooling Minimum Air Flow {m3/s}
  ,                                       !- Cooling Minimum Air Flow Fraction
  DesignDay,                              !- Heating Design Air Flow Method
  ,                                       !- Heating Design Air Flow Rate {m3/s}
  ,                                       !- Heating Maximum Air Flow per Zone Floor Area {m3/s-m2}
  ,                                       !- Heating Maximum Air Flow {m3/s}
  ,                                       !- Heating Maximum Air Flow Fraction
  ,                                       !- Design Zone Air Distribution Effectiveness in Cooling Mode
  ,                                       !- Design Zone Air Distribution Effectiveness in Heating Mode
  No,                                     !- Account for Dedicated Outdoor Air System
  NeutralSupplyAir,                       !- Dedicated Outdoor Air System Control Strategy
  autosize,                               !- Dedicated Outdoor Air Low Setpoint Temperature for Design {C}
  autosize;                               !- Dedicated Outdoor Air High Setpoint Temperature for Design {C}

OS:ZoneHVAC:EquipmentList,
  {6603da6f-95ea-42a0-ba13-c0489a0a4163}, !- Handle
  Zone HVAC Equipment List 2,             !- Name
  {61ffeef6-7d04-4d4f-906b-4a5d6e62b98e}; !- Thermal Zone

OS:Space,
  {2c8bc28f-af3a-485b-a37a-fc1b8a6e69ae}, !- Handle
  garage space,                           !- Name
  {36130950-4930-4cc6-a15d-6bac5307143a}, !- Space Type Name
  ,                                       !- Default Construction Set Name
  ,                                       !- Default Schedule Set Name
  -0,                                     !- Direction of Relative North {deg}
  0,                                      !- X Origin {m}
  0,                                      !- Y Origin {m}
  0,                                      !- Z Origin {m}
  ,                                       !- Building Story Name
  {61ffeef6-7d04-4d4f-906b-4a5d6e62b98e}; !- Thermal Zone Name

OS:Surface,
  {ab93c460-5824-42f1-9735-5a23d64ca11d}, !- Handle
  Surface 1,                              !- Name
  Floor,                                  !- Surface Type
  ,                                       !- Construction Name
  {2c8bc28f-af3a-485b-a37a-fc1b8a6e69ae}, !- Space Name
  Ground,                                 !- Outside Boundary Condition
  ,                                       !- Outside Boundary Condition Object
  NoSun,                                  !- Sun Exposure
  NoWind,                                 !- Wind Exposure
  ,                                       !- View Factor to Ground
  ,                                       !- Number of Vertices
  7.1330661888875, -3.048, 0,             !- X,Y,Z Vertex 1 {m}
  7.1330661888875, 3.048, 0,              !- X,Y,Z Vertex 2 {m}
  10.7906661888875, 3.048, 0,             !- X,Y,Z Vertex 3 {m}
  10.7906661888875, -3.048, 0;            !- X,Y,Z Vertex 4 {m}

OS:Surface,
  {e46916d3-8988-4724-95ed-b4cf3d4e1d1f}, !- Handle
  Surface 2,                              !- Name
  Wall,                                   !- Surface Type
  ,                                       !- Construction Name
  {2c8bc28f-af3a-485b-a37a-fc1b8a6e69ae}, !- Space Name
  Surface,                                !- Outside Boundary Condition
  {89c03fe6-bc5c-48ed-9ebf-9f7ded2c9a3f}, !- Outside Boundary Condition Object
  NoSun,                                  !- Sun Exposure
  NoWind,                                 !- Wind Exposure
  ,                                       !- View Factor to Ground
  ,                                       !- Number of Vertices
  7.1330661888875, 3.048, 2.4384,         !- X,Y,Z Vertex 1 {m}
  7.1330661888875, 3.048, 0,              !- X,Y,Z Vertex 2 {m}
  7.1330661888875, 0, 0,                  !- X,Y,Z Vertex 3 {m}
  7.1330661888875, 0, 2.4384;             !- X,Y,Z Vertex 4 {m}

OS:Surface,
  {9406a5b3-29b7-4d5c-9efc-008f8ae94c93}, !- Handle
  Surface 3,                              !- Name
  Wall,                                   !- Surface Type
  ,                                       !- Construction Name
  {2c8bc28f-af3a-485b-a37a-fc1b8a6e69ae}, !- Space Name
  Surface,                                !- Outside Boundary Condition
  {917e947e-da8e-4797-b9ea-60dba4212c7e}, !- Outside Boundary Condition Object
  NoSun,                                  !- Sun Exposure
  NoWind,                                 !- Wind Exposure
  ,                                       !- View Factor to Ground
  ,                                       !- Number of Vertices
  10.7906661888875, 3.048, 2.4384,        !- X,Y,Z Vertex 1 {m}
  10.7906661888875, 3.048, 0,             !- X,Y,Z Vertex 2 {m}
  7.1330661888875, 3.048, 0,              !- X,Y,Z Vertex 3 {m}
  7.1330661888875, 3.048, 2.4384;         !- X,Y,Z Vertex 4 {m}

OS:Surface,
  {4ce59dd6-6726-4d7c-80e7-054d7c35f1b3}, !- Handle
  Surface 4,                              !- Name
  Wall,                                   !- Surface Type
  ,                                       !- Construction Name
  {2c8bc28f-af3a-485b-a37a-fc1b8a6e69ae}, !- Space Name
  Outdoors,                               !- Outside Boundary Condition
  ,                                       !- Outside Boundary Condition Object
  SunExposed,                             !- Sun Exposure
  WindExposed,                            !- Wind Exposure
  ,                                       !- View Factor to Ground
  ,                                       !- Number of Vertices
  10.7906661888875, -3.048, 2.4384,       !- X,Y,Z Vertex 1 {m}
  10.7906661888875, -3.048, 0,            !- X,Y,Z Vertex 2 {m}
  10.7906661888875, 3.048, 0,             !- X,Y,Z Vertex 3 {m}
  10.7906661888875, 3.048, 2.4384;        !- X,Y,Z Vertex 4 {m}

OS:Surface,
  {24677311-158b-4ee4-b722-dcd5559d88dd}, !- Handle
  Surface 5,                              !- Name
  Wall,                                   !- Surface Type
  ,                                       !- Construction Name
  {2c8bc28f-af3a-485b-a37a-fc1b8a6e69ae}, !- Space Name
  Outdoors,                               !- Outside Boundary Condition
  ,                                       !- Outside Boundary Condition Object
  SunExposed,                             !- Sun Exposure
  WindExposed,                            !- Wind Exposure
  ,                                       !- View Factor to Ground
  ,                                       !- Number of Vertices
  7.1330661888875, -3.048, 2.4384,        !- X,Y,Z Vertex 1 {m}
  7.1330661888875, -3.048, 0,             !- X,Y,Z Vertex 2 {m}
  10.7906661888875, -3.048, 0,            !- X,Y,Z Vertex 3 {m}
  10.7906661888875, -3.048, 2.4384;       !- X,Y,Z Vertex 4 {m}

OS:Surface,
  {6a54b61b-a620-4335-9ee3-0304ebdaff9b}, !- Handle
  Surface 6,                              !- Name
  RoofCeiling,                            !- Surface Type
  ,                                       !- Construction Name
  {2c8bc28f-af3a-485b-a37a-fc1b8a6e69ae}, !- Space Name
  Surface,                                !- Outside Boundary Condition
  {18754ede-1ed1-4549-9fe2-4f38372ea620}, !- Outside Boundary Condition Object
  NoSun,                                  !- Sun Exposure
  NoWind,                                 !- Wind Exposure
  ,                                       !- View Factor to Ground
  ,                                       !- Number of Vertices
  10.7906661888875, -3.048, 2.4384,       !- X,Y,Z Vertex 1 {m}
  10.7906661888875, 3.048, 2.4384,        !- X,Y,Z Vertex 2 {m}
  7.1330661888875, 3.048, 2.4384,         !- X,Y,Z Vertex 3 {m}
  7.1330661888875, 0, 2.4384,             !- X,Y,Z Vertex 4 {m}
  7.1330661888875, -3.048, 2.4384;        !- X,Y,Z Vertex 5 {m}

OS:SpaceType,
  {36130950-4930-4cc6-a15d-6bac5307143a}, !- Handle
  Space Type 1,                           !- Name
  ,                                       !- Default Construction Set Name
  ,                                       !- Default Schedule Set Name
  ,                                       !- Group Rendering Name
  ,                                       !- Design Specification Outdoor Air Object Name
  ,                                       !- Standards Building Type
  garage;                                 !- Standards Space Type

OS:Space,
  {76e26606-a9c9-40d9-a5c9-0d5d0117bd59}, !- Handle
  living space,                           !- Name
  {390139f8-b57c-483a-a1c0-d5b0c5af5667}, !- Space Type Name
  ,                                       !- Default Construction Set Name
  ,                                       !- Default Schedule Set Name
  -0,                                     !- Direction of Relative North {deg}
  0,                                      !- X Origin {m}
  0,                                      !- Y Origin {m}
  0,                                      !- Z Origin {m}
  ,                                       !- Building Story Name
  {02fc23eb-6e71-4546-9a8b-7f67a286afa5}, !- Thermal Zone Name
  ,                                       !- Part of Total Floor Area
  ,                                       !- Design Specification Outdoor Air Object Name
  {161d6c95-aded-460e-8505-f74738705582}; !- Building Unit Name

OS:Surface,
  {ea44e6a4-f1c7-4352-8874-de71bba2b49c}, !- Handle
  Surface 7,                              !- Name
  Floor,                                  !- Surface Type
  ,                                       !- Construction Name
  {76e26606-a9c9-40d9-a5c9-0d5d0117bd59}, !- Space Name
  Ground,                                 !- Outside Boundary Condition
  ,                                       !- Outside Boundary Condition Object
  NoSun,                                  !- Sun Exposure
  NoWind,                                 !- Wind Exposure
  ,                                       !- View Factor to Ground
  ,                                       !- Number of Vertices
  0, 0, 0,                                !- X,Y,Z Vertex 1 {m}
  0, 5.39533309444375, 0,                 !- X,Y,Z Vertex 2 {m}
  10.7906661888875, 5.39533309444375, 0,  !- X,Y,Z Vertex 3 {m}
  10.7906661888875, 3.048, 0,             !- X,Y,Z Vertex 4 {m}
  7.1330661888875, 3.048, 0,              !- X,Y,Z Vertex 5 {m}
  7.1330661888875, 0, 0;                  !- X,Y,Z Vertex 6 {m}

OS:Surface,
  {f12d0a05-8cb9-4267-8502-dce9e801de1a}, !- Handle
  Surface 8,                              !- Name
  Wall,                                   !- Surface Type
  ,                                       !- Construction Name
  {76e26606-a9c9-40d9-a5c9-0d5d0117bd59}, !- Space Name
  Outdoors,                               !- Outside Boundary Condition
  ,                                       !- Outside Boundary Condition Object
  SunExposed,                             !- Sun Exposure
  WindExposed,                            !- Wind Exposure
  ,                                       !- View Factor to Ground
  ,                                       !- Number of Vertices
  0, 5.39533309444375, 2.4384,            !- X,Y,Z Vertex 1 {m}
  0, 5.39533309444375, 0,                 !- X,Y,Z Vertex 2 {m}
  0, 0, 0,                                !- X,Y,Z Vertex 3 {m}
  0, 0, 2.4384;                           !- X,Y,Z Vertex 4 {m}

OS:Surface,
  {0ff494f5-61b9-4284-a319-601efff07abb}, !- Handle
  Surface 9,                              !- Name
  Wall,                                   !- Surface Type
  ,                                       !- Construction Name
  {76e26606-a9c9-40d9-a5c9-0d5d0117bd59}, !- Space Name
  Outdoors,                               !- Outside Boundary Condition
  ,                                       !- Outside Boundary Condition Object
  SunExposed,                             !- Sun Exposure
  WindExposed,                            !- Wind Exposure
  ,                                       !- View Factor to Ground
  ,                                       !- Number of Vertices
  10.7906661888875, 5.39533309444375, 2.4384, !- X,Y,Z Vertex 1 {m}
  10.7906661888875, 5.39533309444375, 0,  !- X,Y,Z Vertex 2 {m}
  0, 5.39533309444375, 0,                 !- X,Y,Z Vertex 3 {m}
  0, 5.39533309444375, 2.4384;            !- X,Y,Z Vertex 4 {m}

OS:Surface,
  {78b3ede0-2c84-45f1-a9d3-fbb3d10b25e4}, !- Handle
  Surface 10,                             !- Name
  Wall,                                   !- Surface Type
  ,                                       !- Construction Name
  {76e26606-a9c9-40d9-a5c9-0d5d0117bd59}, !- Space Name
  Outdoors,                               !- Outside Boundary Condition
  ,                                       !- Outside Boundary Condition Object
  SunExposed,                             !- Sun Exposure
  WindExposed,                            !- Wind Exposure
  ,                                       !- View Factor to Ground
  ,                                       !- Number of Vertices
  10.7906661888875, 3.048, 2.4384,        !- X,Y,Z Vertex 1 {m}
  10.7906661888875, 3.048, 0,             !- X,Y,Z Vertex 2 {m}
  10.7906661888875, 5.39533309444375, 0,  !- X,Y,Z Vertex 3 {m}
  10.7906661888875, 5.39533309444375, 2.4384; !- X,Y,Z Vertex 4 {m}

OS:Surface,
  {917e947e-da8e-4797-b9ea-60dba4212c7e}, !- Handle
  Surface 11,                             !- Name
  Wall,                                   !- Surface Type
  ,                                       !- Construction Name
  {76e26606-a9c9-40d9-a5c9-0d5d0117bd59}, !- Space Name
  Surface,                                !- Outside Boundary Condition
  {9406a5b3-29b7-4d5c-9efc-008f8ae94c93}, !- Outside Boundary Condition Object
  NoSun,                                  !- Sun Exposure
  NoWind,                                 !- Wind Exposure
  ,                                       !- View Factor to Ground
  ,                                       !- Number of Vertices
  7.1330661888875, 3.048, 2.4384,         !- X,Y,Z Vertex 1 {m}
  7.1330661888875, 3.048, 0,              !- X,Y,Z Vertex 2 {m}
  10.7906661888875, 3.048, 0,             !- X,Y,Z Vertex 3 {m}
  10.7906661888875, 3.048, 2.4384;        !- X,Y,Z Vertex 4 {m}

OS:Surface,
  {89c03fe6-bc5c-48ed-9ebf-9f7ded2c9a3f}, !- Handle
  Surface 12,                             !- Name
  Wall,                                   !- Surface Type
  ,                                       !- Construction Name
  {76e26606-a9c9-40d9-a5c9-0d5d0117bd59}, !- Space Name
  Surface,                                !- Outside Boundary Condition
  {e46916d3-8988-4724-95ed-b4cf3d4e1d1f}, !- Outside Boundary Condition Object
  NoSun,                                  !- Sun Exposure
  NoWind,                                 !- Wind Exposure
  ,                                       !- View Factor to Ground
  ,                                       !- Number of Vertices
  7.1330661888875, 0, 2.4384,             !- X,Y,Z Vertex 1 {m}
  7.1330661888875, 0, 0,                  !- X,Y,Z Vertex 2 {m}
  7.1330661888875, 3.048, 0,              !- X,Y,Z Vertex 3 {m}
  7.1330661888875, 3.048, 2.4384;         !- X,Y,Z Vertex 4 {m}

OS:Surface,
  {a9d79e58-d050-4b7a-84f8-f88aaa4d986b}, !- Handle
  Surface 13,                             !- Name
  Wall,                                   !- Surface Type
  ,                                       !- Construction Name
  {76e26606-a9c9-40d9-a5c9-0d5d0117bd59}, !- Space Name
  Outdoors,                               !- Outside Boundary Condition
  ,                                       !- Outside Boundary Condition Object
  SunExposed,                             !- Sun Exposure
  WindExposed,                            !- Wind Exposure
  ,                                       !- View Factor to Ground
  ,                                       !- Number of Vertices
  0, 0, 2.4384,                           !- X,Y,Z Vertex 1 {m}
  0, 0, 0,                                !- X,Y,Z Vertex 2 {m}
  7.1330661888875, 0, 0,                  !- X,Y,Z Vertex 3 {m}
  7.1330661888875, 0, 2.4384;             !- X,Y,Z Vertex 4 {m}

OS:Surface,
  {42088570-61f3-4fb3-a660-5fbf1a5ca0c6}, !- Handle
  Surface 14,                             !- Name
  RoofCeiling,                            !- Surface Type
  ,                                       !- Construction Name
  {76e26606-a9c9-40d9-a5c9-0d5d0117bd59}, !- Space Name
  Surface,                                !- Outside Boundary Condition
  {fd77bb62-029b-453e-83a4-8d09e15c5a20}, !- Outside Boundary Condition Object
  NoSun,                                  !- Sun Exposure
  NoWind,                                 !- Wind Exposure
  ,                                       !- View Factor to Ground
  ,                                       !- Number of Vertices
  7.1330661888875, 0, 2.4384,             !- X,Y,Z Vertex 1 {m}
  7.1330661888875, 3.048, 2.4384,         !- X,Y,Z Vertex 2 {m}