!- NOTE: Auto-generated from /test/osw_files/SFD_2000sqft_2story_SL_GRG_UA_3Beds_2Baths_Denver_Furnace_CentralAC.osw

OS:Version,
  {40c432fb-a45e-4317-aa09-ebda5ec6d364}, !- Handle
  2.5.1;                                  !- Version Identifier

OS:Building,
  {27854f3a-e59c-4eb5-957c-1103e7d7a3cc}, !- Handle
  Building 1,                             !- Name
  ,                                       !- Building Sector Type
  0,                                      !- North Axis {deg}
  ,                                       !- Nominal Floor to Floor Height {m}
  ,                                       !- Space Type Name
  ,                                       !- Default Construction Set Name
  ,                                       !- Default Schedule Set Name
  2,                                      !- Standards Number of Stories
  2,                                      !- Standards Number of Above Ground Stories
  singlefamilydetached,                   !- Standards Building Type
  1;                                      !- Standards Number of Living Units

OS:Facility,
  {bdf1224f-dbd4-4b72-aee7-b732e112ed4e}; !- Handle

OS:Site,
  {523cc566-dcbd-46ba-b1e9-f671103940ab}, !- Handle
  Denver Intl Ap_CO_USA,                  !- Name
  39.83,                                  !- Latitude {deg}
  -104.65,                                !- Longitude {deg}
  -7,                                     !- Time Zone {hr}
  1650,                                   !- Elevation {m}
  ;                                       !- Terrain

OS:SimulationControl,
  {88cfc53a-b114-4e37-a3c7-ad3e493d995f}, !- Handle
  ,                                       !- Do Zone Sizing Calculation
  ,                                       !- Do System Sizing Calculation
  ,                                       !- Do Plant Sizing Calculation
  No;                                     !- Run Simulation for Sizing Periods

OS:Sizing:Parameters,
  {ffabaf40-c61e-4a1a-9c29-3eade99a501a}, !- Handle
  1.25,                                   !- Heating Sizing Factor
  1.15;                                   !- Cooling Sizing Factor

OS:Timestep,
  {0965ac62-61aa-4bca-a462-f7ad479c045c}, !- Handle
  6;                                      !- Number of Timesteps per Hour

OS:ShadowCalculation,
  {315230e9-7627-4a75-a13b-c6e4b64df8c1}, !- Handle
  20,                                     !- Calculation Frequency
  200;                                    !- Maximum Figures in Shadow Overlap Calculations

OS:HeatBalanceAlgorithm,
  {5b2ee01a-804a-4294-a7b8-ed380a68b7ba}, !- Handle
  ConductionTransferFunction,             !- Algorithm
  200;                                    !- Surface Temperature Upper Limit {C}

OS:RunPeriod,
  {9902fe1d-b3d3-49c1-afce-4f3fb215cad2}, !- Handle
  Run Period 1,                           !- Name
  1,                                      !- Begin Month
  1,                                      !- Begin Day of Month
  12,                                     !- End Month
  31,                                     !- End Day of Month
  ,                                       !- Use Weather File Holidays and Special Days
  ,                                       !- Use Weather File Daylight Saving Period
  ,                                       !- Apply Weekend Holiday Rule
  ,                                       !- Use Weather File Rain Indicators
  ,                                       !- Use Weather File Snow Indicators
  ;                                       !- Number of Times Runperiod to be Repeated

OS:LifeCycleCost:Parameters,
  {91c2f37f-9269-4c98-b228-c297f246c648}, !- Handle
  ,                                       !- Analysis Type
  ,                                       !- Discounting Convention
  ,                                       !- Inflation Approach
  ,                                       !- Real Discount Rate
  ,                                       !- Nominal Discount Rate
  ,                                       !- Inflation
  ,                                       !- Base Date Month
  ,                                       !- Base Date Year
  ,                                       !- Service Date Month
  ,                                       !- Service Date Year
  ;                                       !- Length of Study Period in Years

OS:ThermalZone,
  {3ed77cdb-c1c1-4397-96f2-69c5183fcdee}, !- Handle
  living zone,                            !- Name
  ,                                       !- Multiplier
  ,                                       !- Ceiling Height {m}
  ,                                       !- Volume {m3}
  ,                                       !- Floor Area {m2}
  ,                                       !- Zone Inside Convection Algorithm
  ,                                       !- Zone Outside Convection Algorithm
  ,                                       !- Zone Conditioning Equipment List Name
  {131966c0-c6a3-4ed4-82ec-90acc5536171}, !- Zone Air Inlet Port List
  {b9e5cb90-9dd8-409d-ad6d-430fe98123cf}, !- Zone Air Exhaust Port List
  {9d94e166-b815-4f48-a0cf-a98614e6409f}, !- Zone Air Node Name
  {f7c3016a-ad87-415e-8345-5e72bec9ae92}, !- Zone Return Air Node Name
  ,                                       !- Primary Daylighting Control Name
  ,                                       !- Fraction of Zone Controlled by Primary Daylighting Control
  ,                                       !- Secondary Daylighting Control Name
  ,                                       !- Fraction of Zone Controlled by Secondary Daylighting Control
  ,                                       !- Illuminance Map Name
  ,                                       !- Group Rendering Name
  {7298626d-3ade-47e6-bae9-a772863ba162}, !- Thermostat Name
  No;                                     !- Use Ideal Air Loads

OS:Node,
  {919fd54c-4015-4e61-9e3f-898ba09b0dd5}, !- Handle
  Node 1,                                 !- Name
  {9d94e166-b815-4f48-a0cf-a98614e6409f}, !- Inlet Port
  ;                                       !- Outlet Port

OS:Connection,
  {9d94e166-b815-4f48-a0cf-a98614e6409f}, !- Handle
  {a8ec30be-b4d1-4b79-bdc6-8f5786932578}, !- Name
  {3ed77cdb-c1c1-4397-96f2-69c5183fcdee}, !- Source Object
  11,                                     !- Outlet Port
  {919fd54c-4015-4e61-9e3f-898ba09b0dd5}, !- Target Object
  2;                                      !- Inlet Port

OS:PortList,
  {131966c0-c6a3-4ed4-82ec-90acc5536171}, !- Handle
  {e573ad63-d9e7-4428-af43-af3a85cc9f67}, !- Name
  {3ed77cdb-c1c1-4397-96f2-69c5183fcdee}, !- HVAC Component
  {ee290224-366b-4786-8346-5dfe7ef916ca}; !- Port 1

OS:PortList,
  {b9e5cb90-9dd8-409d-ad6d-430fe98123cf}, !- Handle
  {24aa96b9-959b-4c6a-a2bd-e559b183f8dd}, !- Name
  {3ed77cdb-c1c1-4397-96f2-69c5183fcdee}; !- HVAC Component

OS:Sizing:Zone,
  {adaeb7cc-bfc4-4209-a6bf-dda1ec109763}, !- Handle
  {3ed77cdb-c1c1-4397-96f2-69c5183fcdee}, !- Zone or ZoneList Name
  SupplyAirTemperature,                   !- Zone Cooling Design Supply Air Temperature Input Method
  14,                                     !- Zone Cooling Design Supply Air Temperature {C}
  11.11,                                  !- Zone Cooling Design Supply Air Temperature Difference {deltaC}
  SupplyAirTemperature,                   !- Zone Heating Design Supply Air Temperature Input Method
  40,                                     !- Zone Heating Design Supply Air Temperature {C}
  11.11,                                  !- Zone Heating Design Supply Air Temperature Difference {deltaC}
  0.0085,                                 !- Zone Cooling Design Supply Air Humidity Ratio {kg-H2O/kg-air}
  0.008,                                  !- Zone Heating Design Supply Air Humidity Ratio {kg-H2O/kg-air}
  ,                                       !- Zone Heating Sizing Factor
  ,                                       !- Zone Cooling Sizing Factor
  DesignDay,                              !- Cooling Design Air Flow Method
  ,                                       !- Cooling Design Air Flow Rate {m3/s}
  ,                                       !- Cooling Minimum Air Flow per Zone Floor Area {m3/s-m2}
  ,                                       !- Cooling Minimum Air Flow {m3/s}
  ,                                       !- Cooling Minimum Air Flow Fraction
  DesignDay,                              !- Heating Design Air Flow Method
  ,                                       !- Heating Design Air Flow Rate {m3/s}
  ,                                       !- Heating Maximum Air Flow per Zone Floor Area {m3/s-m2}
  ,                                       !- Heating Maximum Air Flow {m3/s}
  ,                                       !- Heating Maximum Air Flow Fraction
  ,                                       !- Design Zone Air Distribution Effectiveness in Cooling Mode
  ,                                       !- Design Zone Air Distribution Effectiveness in Heating Mode
  No,                                     !- Account for Dedicated Outdoor Air System
  NeutralSupplyAir,                       !- Dedicated Outdoor Air System Control Strategy
  autosize,                               !- Dedicated Outdoor Air Low Setpoint Temperature for Design {C}
  autosize;                               !- Dedicated Outdoor Air High Setpoint Temperature for Design {C}

OS:ZoneHVAC:EquipmentList,
  {3cf6b989-fa51-40a5-aeb3-13eec7547bd0}, !- Handle
  Zone HVAC Equipment List 1,             !- Name
  {3ed77cdb-c1c1-4397-96f2-69c5183fcdee}, !- Thermal Zone
  {a254e59f-405a-4426-90c7-23035075a2b5}, !- Zone Equipment 1
  1,                                      !- Zone Equipment Cooling Sequence 1
  1;                                      !- Zone Equipment Heating or No-Load Sequence 1

OS:ThermalZone,
  {0e02940d-1c89-4ef3-acec-dd01e8b22562}, !- Handle
  garage zone,                            !- Name
  ,                                       !- Multiplier
  ,                                       !- Ceiling Height {m}
  ,                                       !- Volume {m3}
  ,                                       !- Floor Area {m2}
  ,                                       !- Zone Inside Convection Algorithm
  ,                                       !- Zone Outside Convection Algorithm
  ,                                       !- Zone Conditioning Equipment List Name
  {e932dbc4-e967-4df4-8f10-f9bd8d4db1a0}, !- Zone Air Inlet Port List
  {d4a7d323-ae2a-406f-aed4-b36339db39ab}, !- Zone Air Exhaust Port List
  {93928df7-1fe6-4f8c-b071-5753bb3d632c}, !- Zone Air Node Name
  ,                                       !- Zone Return Air Node Name
  ,                                       !- Primary Daylighting Control Name
  ,                                       !- Fraction of Zone Controlled by Primary Daylighting Control
  ,                                       !- Secondary Daylighting Control Name
  ,                                       !- Fraction of Zone Controlled by Secondary Daylighting Control
  ,                                       !- Illuminance Map Name
  ,                                       !- Group Rendering Name
  ,                                       !- Thermostat Name
  No;                                     !- Use Ideal Air Loads

OS:Node,
  {a4cb7972-da24-46a0-ba65-bdfa470bb680}, !- Handle
  Node 2,                                 !- Name
  {93928df7-1fe6-4f8c-b071-5753bb3d632c}, !- Inlet Port
  ;                                       !- Outlet Port

OS:Connection,
  {93928df7-1fe6-4f8c-b071-5753bb3d632c}, !- Handle
  {1090e66f-84d4-477b-ac5d-cf523ff6e50e}, !- Name
  {0e02940d-1c89-4ef3-acec-dd01e8b22562}, !- Source Object
  11,                                     !- Outlet Port
  {a4cb7972-da24-46a0-ba65-bdfa470bb680}, !- Target Object
  2;                                      !- Inlet Port

OS:PortList,
  {e932dbc4-e967-4df4-8f10-f9bd8d4db1a0}, !- Handle
  {756aa5c3-ef79-4827-b0fa-7985602e1d85}, !- Name
  {0e02940d-1c89-4ef3-acec-dd01e8b22562}; !- HVAC Component

OS:PortList,
  {d4a7d323-ae2a-406f-aed4-b36339db39ab}, !- Handle
  {5ba8dcce-4c62-4cdf-8274-ee2602fc49c2}, !- Name
  {0e02940d-1c89-4ef3-acec-dd01e8b22562}; !- HVAC Component

OS:Sizing:Zone,
  {e9ccd09a-f2e5-4aab-b258-3bd74cb3c949}, !- Handle
  {0e02940d-1c89-4ef3-acec-dd01e8b22562}, !- Zone or ZoneList Name
  SupplyAirTemperature,                   !- Zone Cooling Design Supply Air Temperature Input Method
  14,                                     !- Zone Cooling Design Supply Air Temperature {C}
  11.11,                                  !- Zone Cooling Design Supply Air Temperature Difference {deltaC}
  SupplyAirTemperature,                   !- Zone Heating Design Supply Air Temperature Input Method
  40,                                     !- Zone Heating Design Supply Air Temperature {C}
  11.11,                                  !- Zone Heating Design Supply Air Temperature Difference {deltaC}
  0.0085,                                 !- Zone Cooling Design Supply Air Humidity Ratio {kg-H2O/kg-air}
  0.008,                                  !- Zone Heating Design Supply Air Humidity Ratio {kg-H2O/kg-air}
  ,                                       !- Zone Heating Sizing Factor
  ,                                       !- Zone Cooling Sizing Factor
  DesignDay,                              !- Cooling Design Air Flow Method
  ,                                       !- Cooling Design Air Flow Rate {m3/s}
  ,                                       !- Cooling Minimum Air Flow per Zone Floor Area {m3/s-m2}
  ,                                       !- Cooling Minimum Air Flow {m3/s}
  ,                                       !- Cooling Minimum Air Flow Fraction
  DesignDay,                              !- Heating Design Air Flow Method
  ,                                       !- Heating Design Air Flow Rate {m3/s}
  ,                                       !- Heating Maximum Air Flow per Zone Floor Area {m3/s-m2}
  ,                                       !- Heating Maximum Air Flow {m3/s}
  ,                                       !- Heating Maximum Air Flow Fraction
  ,                                       !- Design Zone Air Distribution Effectiveness in Cooling Mode
  ,                                       !- Design Zone Air Distribution Effectiveness in Heating Mode
  No,                                     !- Account for Dedicated Outdoor Air System
  NeutralSupplyAir,                       !- Dedicated Outdoor Air System Control Strategy
  autosize,                               !- Dedicated Outdoor Air Low Setpoint Temperature for Design {C}
  autosize;                               !- Dedicated Outdoor Air High Setpoint Temperature for Design {C}

OS:ZoneHVAC:EquipmentList,
  {aba5547c-3bbd-40d5-ba69-d24712b0d84c}, !- Handle
  Zone HVAC Equipment List 2,             !- Name
  {0e02940d-1c89-4ef3-acec-dd01e8b22562}; !- Thermal Zone

OS:Space,
  {86a38e48-28cf-420c-8757-b3c8d5d86f62}, !- Handle
  garage space,                           !- Name
  {f86f6f80-cf83-4773-b80b-a3bf49e04c59}, !- Space Type Name
  ,                                       !- Default Construction Set Name
  ,                                       !- Default Schedule Set Name
  -0,                                     !- Direction of Relative North {deg}
  0,                                      !- X Origin {m}
  0,                                      !- Y Origin {m}
  0,                                      !- Z Origin {m}
  ,                                       !- Building Story Name
  {0e02940d-1c89-4ef3-acec-dd01e8b22562}; !- Thermal Zone Name

OS:Surface,
  {1a8b3e8f-a0df-4def-ac8b-8698f8d063b7}, !- Handle
  Surface 1,                              !- Name
  Floor,                                  !- Surface Type
  ,                                       !- Construction Name
  {86a38e48-28cf-420c-8757-b3c8d5d86f62}, !- Space Name
  Foundation,                             !- Outside Boundary Condition
  ,                                       !- Outside Boundary Condition Object
  NoSun,                                  !- Sun Exposure
  NoWind,                                 !- Wind Exposure
  ,                                       !- View Factor to Ground
  ,                                       !- Number of Vertices
  10.7681689431101, 0, 0,                 !- X,Y,Z Vertex 1 {m}
  10.7681689431101, 6.096, 0,             !- X,Y,Z Vertex 2 {m}
  14.4257689431101, 6.096, 0,             !- X,Y,Z Vertex 3 {m}
  14.4257689431101, 0, 0;                 !- X,Y,Z Vertex 4 {m}

OS:Surface,
  {db90b4dc-873e-4741-978e-d500789f080b}, !- Handle
  Surface 2,                              !- Name
  Wall,                                   !- Surface Type
  ,                                       !- Construction Name
  {86a38e48-28cf-420c-8757-b3c8d5d86f62}, !- Space Name
  Surface,                                !- Outside Boundary Condition
  {e33811c9-35de-4061-89c3-32975f6f7443}, !- Outside Boundary Condition Object
  NoSun,                                  !- Sun Exposure
  NoWind,                                 !- Wind Exposure
  ,                                       !- View Factor to Ground
  ,                                       !- Number of Vertices
  10.7681689431101, 6.096, 2.4384,        !- X,Y,Z Vertex 1 {m}
  10.7681689431101, 6.096, 0,             !- X,Y,Z Vertex 2 {m}
  10.7681689431101, 0, 0,                 !- X,Y,Z Vertex 3 {m}
  10.7681689431101, 0, 2.4384;            !- X,Y,Z Vertex 4 {m}

OS:Surface,
  {8ff70f76-24af-40d7-a86c-eafcf1c6f9f1}, !- Handle
  Surface 3,                              !- Name
  Wall,                                   !- Surface Type
  ,                                       !- Construction Name
  {86a38e48-28cf-420c-8757-b3c8d5d86f62}, !- Space Name
  Surface,                                !- Outside Boundary Condition
  {458461b7-93c3-48ac-8bed-0d6120e7d2b0}, !- Outside Boundary Condition Object
  NoSun,                                  !- Sun Exposure
  NoWind,                                 !- Wind Exposure
  ,                                       !- View Factor to Ground
  ,                                       !- Number of Vertices
  14.4257689431101, 6.096, 2.4384,        !- X,Y,Z Vertex 1 {m}
  14.4257689431101, 6.096, 0,             !- X,Y,Z Vertex 2 {m}
  10.7681689431101, 6.096, 0,             !- X,Y,Z Vertex 3 {m}
  10.7681689431101, 6.096, 2.4384;        !- X,Y,Z Vertex 4 {m}

OS:Surface,
  {2b158561-9951-48c2-a921-aaa3322e354a}, !- Handle
  Surface 4,                              !- Name
  Wall,                                   !- Surface Type
  ,                                       !- Construction Name
  {86a38e48-28cf-420c-8757-b3c8d5d86f62}, !- Space Name
  Outdoors,                               !- Outside Boundary Condition
  ,                                       !- Outside Boundary Condition Object
  SunExposed,                             !- Sun Exposure
  WindExposed,                            !- Wind Exposure
  ,                                       !- View Factor to Ground
  ,                                       !- Number of Vertices
  14.4257689431101, 0, 2.4384,            !- X,Y,Z Vertex 1 {m}
  14.4257689431101, 0, 0,                 !- X,Y,Z Vertex 2 {m}
  14.4257689431101, 6.096, 0,             !- X,Y,Z Vertex 3 {m}
  14.4257689431101, 6.096, 2.4384;        !- X,Y,Z Vertex 4 {m}

OS:Surface,
  {37c1d608-04d3-4e7e-8b8d-b9c1873663b9}, !- Handle
  Surface 5,                              !- Name
  Wall,                                   !- Surface Type
  ,                                       !- Construction Name
  {86a38e48-28cf-420c-8757-b3c8d5d86f62}, !- Space Name
  Outdoors,                               !- Outside Boundary Condition
  ,                                       !- Outside Boundary Condition Object
  SunExposed,                             !- Sun Exposure
  WindExposed,                            !- Wind Exposure
  ,                                       !- View Factor to Ground
  ,                                       !- Number of Vertices
  10.7681689431101, 0, 2.4384,            !- X,Y,Z Vertex 1 {m}
  10.7681689431101, 0, 0,                 !- X,Y,Z Vertex 2 {m}
  14.4257689431101, 0, 0,                 !- X,Y,Z Vertex 3 {m}
  14.4257689431101, 0, 2.4384;            !- X,Y,Z Vertex 4 {m}

OS:Surface,
  {a04a4d9e-bf6f-4ea7-a623-b640875be1b9}, !- Handle
  Surface 6,                              !- Name
  RoofCeiling,                            !- Surface Type
  ,                                       !- Construction Name
  {86a38e48-28cf-420c-8757-b3c8d5d86f62}, !- Space Name
  Surface,                                !- Outside Boundary Condition
  {bb8deb41-3f4d-4777-944f-a5a0535ab639}, !- Outside Boundary Condition Object
  NoSun,                                  !- Sun Exposure
  NoWind,                                 !- Wind Exposure
  ,                                       !- View Factor to Ground
  ,                                       !- Number of Vertices
  14.4257689431101, 0, 2.4384,            !- X,Y,Z Vertex 1 {m}
  14.4257689431101, 6.096, 2.4384,        !- X,Y,Z Vertex 2 {m}
  10.7681689431101, 6.096, 2.4384,        !- X,Y,Z Vertex 3 {m}
  10.7681689431101, 0, 2.4384;            !- X,Y,Z Vertex 4 {m}

OS:SpaceType,
  {f86f6f80-cf83-4773-b80b-a3bf49e04c59}, !- Handle
  Space Type 1,                           !- Name
  ,                                       !- Default Construction Set Name
  ,                                       !- Default Schedule Set Name
  ,                                       !- Group Rendering Name
  ,                                       !- Design Specification Outdoor Air Object Name
  ,                                       !- Standards Building Type
  garage;                                 !- Standards Space Type

OS:Space,
  {6295c775-45f2-4f0c-b285-b78a9ca73717}, !- Handle
  living space,                           !- Name
  {bd8207d0-8695-45f1-b284-c72ec0f23c69}, !- Space Type Name
  ,                                       !- Default Construction Set Name
  ,                                       !- Default Schedule Set Name
  -0,                                     !- Direction of Relative North {deg}
  0,                                      !- X Origin {m}
  0,                                      !- Y Origin {m}
  0,                                      !- Z Origin {m}
  ,                                       !- Building Story Name
  {3ed77cdb-c1c1-4397-96f2-69c5183fcdee}, !- Thermal Zone Name
  ,                                       !- Part of Total Floor Area
  ,                                       !- Design Specification Outdoor Air Object Name
  {b5decee4-533b-4a30-bd46-74672eef9936}; !- Building Unit Name

OS:Surface,
  {f7d490f8-bf25-489a-a564-bd156fc1986b}, !- Handle
  Surface 7,                              !- Name
  Floor,                                  !- Surface Type
  ,                                       !- Construction Name
  {6295c775-45f2-4f0c-b285-b78a9ca73717}, !- Space Name
  Foundation,                             !- Outside Boundary Condition
  ,                                       !- Outside Boundary Condition Object
  NoSun,                                  !- Sun Exposure
  NoWind,                                 !- Wind Exposure
  ,                                       !- View Factor to Ground
  ,                                       !- Number of Vertices
  0, 0, 0,                                !- X,Y,Z Vertex 1 {m}
  0, 7.21288447155505, 0,                 !- X,Y,Z Vertex 2 {m}
  14.4257689431101, 7.21288447155505, 0,  !- X,Y,Z Vertex 3 {m}
  14.4257689431101, 6.096, 0,             !- X,Y,Z Vertex 4 {m}
  10.7681689431101, 6.096, 0,             !- X,Y,Z Vertex 5 {m}
  10.7681689431101, 0, 0;                 !- X,Y,Z Vertex 6 {m}

OS:Surface,
  {726dd6fc-2455-4270-89b3-5071795e55f2}, !- Handle
  Surface 8,                              !- Name
  Wall,                                   !- Surface Type
  ,                                       !- Construction Name
  {6295c775-45f2-4f0c-b285-b78a9ca73717}, !- Space Name
  Outdoors,                               !- Outside Boundary Condition
  ,                                       !- Outside Boundary Condition Object
  SunExposed,                             !- Sun Exposure
  WindExposed,                            !- Wind Exposure
  ,                                       !- View Factor to Ground
  ,                                       !- Number of Vertices
  0, 7.21288447155505, 2.4384,            !- X,Y,Z Vertex 1 {m}
  0, 7.21288447155505, 0,                 !- X,Y,Z Vertex 2 {m}
  0, 0, 0,                                !- X,Y,Z Vertex 3 {m}
  0, 0, 2.4384;                           !- X,Y,Z Vertex 4 {m}

OS:Surface,
  {97702587-18c5-41a8-879f-d01d62a7b2e1}, !- Handle
  Surface 9,                              !- Name
  Wall,                                   !- Surface Type
  ,                                       !- Construction Name
  {6295c775-45f2-4f0c-b285-b78a9ca73717}, !- Space Name
  Outdoors,                               !- Outside Boundary Condition
  ,                                       !- Outside Boundary Condition Object
  SunExposed,                             !- Sun Exposure
  WindExposed,                            !- Wind Exposure
  ,                                       !- View Factor to Ground
  ,                                       !- Number of Vertices
  14.4257689431101, 7.21288447155505, 2.4384, !- X,Y,Z Vertex 1 {m}
  14.4257689431101, 7.21288447155505, 0,  !- X,Y,Z Vertex 2 {m}
  0, 7.21288447155505, 0,                 !- X,Y,Z Vertex 3 {m}
  0, 7.21288447155505, 2.4384;            !- X,Y,Z Vertex 4 {m}

OS:Surface,
  {d3623e20-9ed9-4c4a-8877-74afd2b09bfa}, !- Handle
  Surface 10,                             !- Name
  Wall,                                   !- Surface Type
  ,                                       !- Construction Name
  {6295c775-45f2-4f0c-b285-b78a9ca73717}, !- Space Name
  Outdoors,                               !- Outside Boundary Condition
  ,                                       !- Outside Boundary Condition Object
  SunExposed,                             !- Sun Exposure
  WindExposed,                            !- Wind Exposure
  ,                                       !- View Factor to Ground
  ,                                       !- Number of Vertices
  14.4257689431101, 6.096, 2.4384,        !- X,Y,Z Vertex 1 {m}
  14.4257689431101, 6.096, 0,             !- X,Y,Z Vertex 2 {m}
  14.4257689431101, 7.21288447155505, 0,  !- X,Y,Z Vertex 3 {m}
  14.4257689431101, 7.21288447155505, 2.4384; !- X,Y,Z Vertex 4 {m}

OS:Surface,
  {458461b7-93c3-48ac-8bed-0d6120e7d2b0}, !- Handle
  Surface 11,                             !- Name
  Wall,                                   !- Surface Type
  ,                                       !- Construction Name
  {6295c775-45f2-4f0c-b285-b78a9ca73717}, !- Space Name
  Surface,                                !- Outside Boundary Condition
  {8ff70f76-24af-40d7-a86c-eafcf1c6f9f1}, !- Outside Boundary Condition Object
  NoSun,                                  !- Sun Exposure
  NoWind,                                 !- Wind Exposure
  ,                                       !- View Factor to Ground
  ,                                       !- Number of Vertices
  10.7681689431101, 6.096, 2.4384,        !- X,Y,Z Vertex 1 {m}
  10.7681689431101, 6.096, 0,             !- X,Y,Z Vertex 2 {m}
  14.4257689431101, 6.096, 0,             !- X,Y,Z Vertex 3 {m}
  14.4257689431101, 6.096, 2.4384;        !- X,Y,Z Vertex 4 {m}

OS:Surface,
  {e33811c9-35de-4061-89c3-32975f6f7443}, !- Handle
  Surface 12,                             !- Name
  Wall,                                   !- Surface Type
  ,                                       !- Construction Name
  {6295c775-45f2-4f0c-b285-b78a9ca73717}, !- Space Name
  Surface,                                !- Outside Boundary Condition
  {db90b4dc-873e-4741-978e-d500789f080b}, !- Outside Boundary Condition Object
  NoSun,                                  !- Sun Exposure
  NoWind,                                 !- Wind Exposure
  ,                                       !- View Factor to Ground
  ,                                       !- Number of Vertices
  10.7681689431101, 0, 2.4384,            !- X,Y,Z Vertex 1 {m}
  10.7681689431101, 0, 0,                 !- X,Y,Z Vertex 2 {m}
  10.7681689431101, 6.096, 0,             !- X,Y,Z Vertex 3 {m}
  10.7681689431101, 6.096, 2.4384;        !- X,Y,Z Vertex 4 {m}

OS:Surface,
  {45919870-407b-4d07-bddf-6313c0790f50}, !- Handle
  Surface 13,                             !- Name
  Wall,                                   !- Surface Type
  ,                                       !- Construction Name
  {6295c775-45f2-4f0c-b285-b78a9ca73717}, !- Space Name
  Outdoors,                               !- Outside Boundary Condition
  ,                                       !- Outside Boundary Condition Object
  SunExposed,                             !- Sun Exposure
  WindExposed,                            !- Wind Exposure
  ,                                       !- View Factor to Ground
  ,                                       !- Number of Vertices
  0, 0, 2.4384,                           !- X,Y,Z Vertex 1 {m}
  0, 0, 0,                                !- X,Y,Z Vertex 2 {m}
  10.7681689431101, 0, 0,                 !- X,Y,Z Vertex 3 {m}
  10.7681689431101, 0, 2.4384;            !- X,Y,Z Vertex 4 {m}

OS:Surface,
  {9c19c89f-32a2-4b1b-9902-3a2f47575831}, !- Handle
  Surface 14,                             !- Name
  RoofCeiling,                            !- Surface Type
  ,                                       !- Construction Name
  {6295c775-45f2-4f0c-b285-b78a9ca73717}, !- Space Name
  Surface,                                !- Outside Boundary Condition
  {00f88f1b-0483-4d9f-a964-0f416ec30d02}, !- Outside Boundary Condition Object