!- NOTE: Auto-generated from /test/osw_files/SFD_2000sqft_2story_PB_UA.osw

OS:Version,
  {7467d616-6da6-4486-ab34-c3aaf43319f8}, !- Handle
  2.6.0;                                  !- Version Identifier

OS:Building,
  {34e49621-1463-42cd-aaea-98ca3f6c3aea}, !- Handle
  Building 1,                             !- Name
  ,                                       !- Building Sector Type
  0,                                      !- North Axis {deg}
  ,                                       !- Nominal Floor to Floor Height {m}
  ,                                       !- Space Type Name
  ,                                       !- Default Construction Set Name
  ,                                       !- Default Schedule Set Name
  2,                                      !- Standards Number of Stories
  2,                                      !- Standards Number of Above Ground Stories
  singlefamilydetached,                   !- Standards Building Type
  1;                                      !- Standards Number of Living Units

OS:Facility,
  {16f7fd78-08ed-4778-bd8c-c254262bff3c}; !- Handle

OS:Site,
  {d8076495-6506-4f44-84d0-1b421c1c9fb7}, !- Handle
  Site 1,                                 !- Name
  ,                                       !- Latitude {deg}
  ,                                       !- Longitude {deg}
  ,                                       !- Time Zone {hr}
  ,                                       !- Elevation {m}
  ;                                       !- Terrain

OS:SimulationControl,
  {4d08868c-1fff-42d9-9e5d-938f0fe5f69d}, !- Handle
  ,                                       !- Do Zone Sizing Calculation
  ,                                       !- Do System Sizing Calculation
  ,                                       !- Do Plant Sizing Calculation
  No;                                     !- Run Simulation for Sizing Periods

OS:Sizing:Parameters,
  {9a2f91d6-2505-4875-8b8b-ef36bf823062}, !- Handle
  1.25,                                   !- Heating Sizing Factor
  1.15;                                   !- Cooling Sizing Factor

OS:Timestep,
  {7b9a3070-eb53-468e-8c8c-3cbae0e919c6}, !- Handle
  6;                                      !- Number of Timesteps per Hour

OS:ShadowCalculation,
  {9d6c930d-6e51-4afa-ad8e-6a603f0c39f9}, !- Handle
  20,                                     !- Calculation Frequency
  200;                                    !- Maximum Figures in Shadow Overlap Calculations

OS:HeatBalanceAlgorithm,
  {8e9a581d-b63b-44c5-9fb2-897ed8469854}, !- Handle
  MoisturePenetrationDepthConductionTransferFunction, !- Algorithm
  200;                                    !- Surface Temperature Upper Limit {C}

OS:RunPeriod,
  {b3b7f148-8437-4bc9-bfa8-6b274a928c28}, !- Handle
  Run Period 1,                           !- Name
  1,                                      !- Begin Month
  1,                                      !- Begin Day of Month
  12,                                     !- End Month
  31,                                     !- End Day of Month
  ,                                       !- Use Weather File Holidays and Special Days
  ,                                       !- Use Weather File Daylight Saving Period
  ,                                       !- Apply Weekend Holiday Rule
  ,                                       !- Use Weather File Rain Indicators
  ,                                       !- Use Weather File Snow Indicators
  ;                                       !- Number of Times Runperiod to be Repeated

OS:LifeCycleCost:Parameters,
  {69ed5ba1-ece5-4e98-a611-94a7ef188adc}, !- Handle
  ,                                       !- Analysis Type
  ,                                       !- Discounting Convention
  ,                                       !- Inflation Approach
  ,                                       !- Real Discount Rate
  ,                                       !- Nominal Discount Rate
  ,                                       !- Inflation
  ,                                       !- Base Date Month
  ,                                       !- Base Date Year
  ,                                       !- Service Date Month
  ,                                       !- Service Date Year
  ;                                       !- Length of Study Period in Years

OS:SurfaceConvectionAlgorithm:Outside,
  {9ed7ddd8-0f8b-40e7-b293-91d239ae0f8e}, !- Handle
  DOE-2;                                  !- Algorithm

OS:SurfaceConvectionAlgorithm:Inside,
  {42287e16-92c1-4e32-b0e8-f4face64c4dc}, !- Handle
  TARP;                                   !- Algorithm

OS:ZoneCapacitanceMultiplier:ResearchSpecial,
  {eb1996c1-7bf0-4e51-8d10-7e3ead1ef0c3}, !- Handle
  ,                                       !- Temperature Capacity Multiplier
  1,                                      !- Humidity Capacity Multiplier
  ;                                       !- Carbon Dioxide Capacity Multiplier

OS:ThermalZone,
  {c2d6d730-0c74-41a9-a608-61c0514ff898}, !- Handle
  living zone,                            !- Name
  ,                                       !- Multiplier
  ,                                       !- Ceiling Height {m}
  ,                                       !- Volume {m3}
  ,                                       !- Floor Area {m2}
  ,                                       !- Zone Inside Convection Algorithm
  ,                                       !- Zone Outside Convection Algorithm
  ,                                       !- Zone Conditioning Equipment List Name
  {a57d9b60-93ad-41be-a4d3-3d7d14d0eeb2}, !- Zone Air Inlet Port List
  {de4e5048-1d94-477f-a650-a27795c248d7}, !- Zone Air Exhaust Port List
  {2924d293-49b4-47f8-9444-8279dff341fc}, !- Zone Air Node Name
  ,                                       !- Zone Return Air Node Name
  ,                                       !- Primary Daylighting Control Name
  ,                                       !- Fraction of Zone Controlled by Primary Daylighting Control
  ,                                       !- Secondary Daylighting Control Name
  ,                                       !- Fraction of Zone Controlled by Secondary Daylighting Control
  ,                                       !- Illuminance Map Name
  ,                                       !- Group Rendering Name
  ,                                       !- Thermostat Name
  No;                                     !- Use Ideal Air Loads

OS:Node,
  {0b043803-b5af-47a9-8813-8a9c8503a621}, !- Handle
  Node 1,                                 !- Name
  {2924d293-49b4-47f8-9444-8279dff341fc}, !- Inlet Port
  ;                                       !- Outlet Port

OS:Connection,
  {2924d293-49b4-47f8-9444-8279dff341fc}, !- Handle
  {a9562f8c-5359-4a56-860b-8c53e4e799d0}, !- Name
  {c2d6d730-0c74-41a9-a608-61c0514ff898}, !- Source Object
  11,                                     !- Outlet Port
  {0b043803-b5af-47a9-8813-8a9c8503a621}, !- Target Object
  2;                                      !- Inlet Port

OS:PortList,
  {a57d9b60-93ad-41be-a4d3-3d7d14d0eeb2}, !- Handle
  {c261b4ae-9b35-40a8-8182-23063a3cc694}, !- Name
  {c2d6d730-0c74-41a9-a608-61c0514ff898}; !- HVAC Component

OS:PortList,
  {de4e5048-1d94-477f-a650-a27795c248d7}, !- Handle
  {f7f0da38-26af-4db8-9eaa-7cfffd27e527}, !- Name
  {c2d6d730-0c74-41a9-a608-61c0514ff898}; !- HVAC Component

OS:Sizing:Zone,
  {ea6406e1-b817-46f3-88d4-9bce59df4b0a}, !- Handle
  {c2d6d730-0c74-41a9-a608-61c0514ff898}, !- Zone or ZoneList Name
  SupplyAirTemperature,                   !- Zone Cooling Design Supply Air Temperature Input Method
  14,                                     !- Zone Cooling Design Supply Air Temperature {C}
  11.11,                                  !- Zone Cooling Design Supply Air Temperature Difference {deltaC}
  SupplyAirTemperature,                   !- Zone Heating Design Supply Air Temperature Input Method
  40,                                     !- Zone Heating Design Supply Air Temperature {C}
  11.11,                                  !- Zone Heating Design Supply Air Temperature Difference {deltaC}
  0.0085,                                 !- Zone Cooling Design Supply Air Humidity Ratio {kg-H2O/kg-air}
  0.008,                                  !- Zone Heating Design Supply Air Humidity Ratio {kg-H2O/kg-air}
  ,                                       !- Zone Heating Sizing Factor
  ,                                       !- Zone Cooling Sizing Factor
  DesignDay,                              !- Cooling Design Air Flow Method
  ,                                       !- Cooling Design Air Flow Rate {m3/s}
  ,                                       !- Cooling Minimum Air Flow per Zone Floor Area {m3/s-m2}
  ,                                       !- Cooling Minimum Air Flow {m3/s}
  ,                                       !- Cooling Minimum Air Flow Fraction
  DesignDay,                              !- Heating Design Air Flow Method
  ,                                       !- Heating Design Air Flow Rate {m3/s}
  ,                                       !- Heating Maximum Air Flow per Zone Floor Area {m3/s-m2}
  ,                                       !- Heating Maximum Air Flow {m3/s}
  ,                                       !- Heating Maximum Air Flow Fraction
  ,                                       !- Design Zone Air Distribution Effectiveness in Cooling Mode
  ,                                       !- Design Zone Air Distribution Effectiveness in Heating Mode
  No,                                     !- Account for Dedicated Outdoor Air System
  NeutralSupplyAir,                       !- Dedicated Outdoor Air System Control Strategy
  autosize,                               !- Dedicated Outdoor Air Low Setpoint Temperature for Design {C}
  autosize;                               !- Dedicated Outdoor Air High Setpoint Temperature for Design {C}

OS:ZoneHVAC:EquipmentList,
  {97cef1de-1b15-4de2-94be-04375a1032b9}, !- Handle
  Zone HVAC Equipment List 1,             !- Name
  {c2d6d730-0c74-41a9-a608-61c0514ff898}; !- Thermal Zone

OS:Space,
  {e16f01a0-5ea5-424e-8b52-0f986adc0a93}, !- Handle
  living space,                           !- Name
  {09623012-ecd2-4369-81b2-bd9484a3b9ad}, !- Space Type Name
  ,                                       !- Default Construction Set Name
  ,                                       !- Default Schedule Set Name
  -0,                                     !- Direction of Relative North {deg}
  0,                                      !- X Origin {m}
  0,                                      !- Y Origin {m}
  0.9144,                                 !- Z Origin {m}
  ,                                       !- Building Story Name
  {c2d6d730-0c74-41a9-a608-61c0514ff898}, !- Thermal Zone Name
  ,                                       !- Part of Total Floor Area
  ,                                       !- Design Specification Outdoor Air Object Name
  {bdc23ddc-3163-44aa-b11d-20285415f791}; !- Building Unit Name

OS:Surface,
  {f42e81bf-123d-4dcc-90d9-63cbcdf5c4f1}, !- Handle
  Surface 1,                              !- Name
  Floor,                                  !- Surface Type
  ,                                       !- Construction Name
  {e16f01a0-5ea5-424e-8b52-0f986adc0a93}, !- Space Name
  Surface,                                !- Outside Boundary Condition
  {993c3f82-c83e-4374-8e7a-65116bafe93f}, !- Outside Boundary Condition Object
  NoSun,                                  !- Sun Exposure
  NoWind,                                 !- Wind Exposure
  ,                                       !- View Factor to Ground
  ,                                       !- Number of Vertices
  0, 0, -1.11022302462516e-016,           !- X,Y,Z Vertex 1 {m}
  0, 6.81553519541936, -1.11022302462516e-016, !- X,Y,Z Vertex 2 {m}
  13.6310703908387, 6.81553519541936, -1.11022302462516e-016, !- X,Y,Z Vertex 3 {m}
  13.6310703908387, 0, -1.11022302462516e-016; !- X,Y,Z Vertex 4 {m}

OS:Surface,
  {20d71d9f-c386-45f4-8761-e28bb40f9f8f}, !- Handle
  Surface 2,                              !- Name
  Wall,                                   !- Surface Type
  ,                                       !- Construction Name
  {e16f01a0-5ea5-424e-8b52-0f986adc0a93}, !- Space Name
  Outdoors,                               !- Outside Boundary Condition
  ,                                       !- Outside Boundary Condition Object
  SunExposed,                             !- Sun Exposure
  WindExposed,                            !- Wind Exposure
  ,                                       !- View Factor to Ground
  ,                                       !- Number of Vertices
  0, 6.81553519541936, 2.4384,            !- X,Y,Z Vertex 1 {m}
  0, 6.81553519541936, -1.11022302462516e-016, !- X,Y,Z Vertex 2 {m}
  0, 0, -1.11022302462516e-016,           !- X,Y,Z Vertex 3 {m}
  0, 0, 2.4384;                           !- X,Y,Z Vertex 4 {m}

OS:Surface,
  {34bb4293-489f-4660-acb0-efe2aadc8aa8}, !- Handle
  Surface 3,                              !- Name
  Wall,                                   !- Surface Type
  ,                                       !- Construction Name
  {e16f01a0-5ea5-424e-8b52-0f986adc0a93}, !- Space Name
  Outdoors,                               !- Outside Boundary Condition
  ,                                       !- Outside Boundary Condition Object
  SunExposed,                             !- Sun Exposure
  WindExposed,                            !- Wind Exposure
  ,                                       !- View Factor to Ground
  ,                                       !- Number of Vertices
  13.6310703908387, 6.81553519541936, 2.4384, !- X,Y,Z Vertex 1 {m}
  13.6310703908387, 6.81553519541936, -1.11022302462516e-016, !- X,Y,Z Vertex 2 {m}
  0, 6.81553519541936, -1.11022302462516e-016, !- X,Y,Z Vertex 3 {m}
  0, 6.81553519541936, 2.4384;            !- X,Y,Z Vertex 4 {m}

OS:Surface,
  {7059104d-377e-4d13-8379-0b95fa9b6669}, !- Handle
  Surface 4,                              !- Name
  Wall,                                   !- Surface Type
  ,                                       !- Construction Name
  {e16f01a0-5ea5-424e-8b52-0f986adc0a93}, !- Space Name
  Outdoors,                               !- Outside Boundary Condition
  ,                                       !- Outside Boundary Condition Object
  SunExposed,                             !- Sun Exposure
  WindExposed,                            !- Wind Exposure
  ,                                       !- View Factor to Ground
  ,                                       !- Number of Vertices
  13.6310703908387, 0, 2.4384,            !- X,Y,Z Vertex 1 {m}
  13.6310703908387, 0, -1.11022302462516e-016, !- X,Y,Z Vertex 2 {m}
  13.6310703908387, 6.81553519541936, -1.11022302462516e-016, !- X,Y,Z Vertex 3 {m}
  13.6310703908387, 6.81553519541936, 2.4384; !- X,Y,Z Vertex 4 {m}

OS:Surface,
  {4bd380ad-564b-49c6-9cb4-70ddcbac6ca9}, !- Handle
  Surface 5,                              !- Name
  Wall,                                   !- Surface Type
  ,                                       !- Construction Name
  {e16f01a0-5ea5-424e-8b52-0f986adc0a93}, !- Space Name
  Outdoors,                               !- Outside Boundary Condition
  ,                                       !- Outside Boundary Condition Object
  SunExposed,                             !- Sun Exposure
  WindExposed,                            !- Wind Exposure
  ,                                       !- View Factor to Ground
  ,                                       !- Number of Vertices
  0, 0, 2.4384,                           !- X,Y,Z Vertex 1 {m}
  0, 0, -1.11022302462516e-016,           !- X,Y,Z Vertex 2 {m}
  13.6310703908387, 0, -1.11022302462516e-016, !- X,Y,Z Vertex 3 {m}
  13.6310703908387, 0, 2.4384;            !- X,Y,Z Vertex 4 {m}

OS:Surface,
  {ce61a9d4-536b-4103-9d64-0bd71191bae3}, !- Handle
  Surface 6,                              !- Name
  RoofCeiling,                            !- Surface Type
  ,                                       !- Construction Name
  {e16f01a0-5ea5-424e-8b52-0f986adc0a93}, !- Space Name
  Surface,                                !- Outside Boundary Condition
  {6d896894-3cf4-42c4-a83f-896943ccc8f0}, !- Outside Boundary Condition Object
  NoSun,                                  !- Sun Exposure
  NoWind,                                 !- Wind Exposure
  ,                                       !- View Factor to Ground
  ,                                       !- Number of Vertices
  13.6310703908387, 0, 2.4384,            !- X,Y,Z Vertex 1 {m}
  13.6310703908387, 6.81553519541936, 2.4384, !- X,Y,Z Vertex 2 {m}
  0, 6.81553519541936, 2.4384,            !- X,Y,Z Vertex 3 {m}
  0, 0, 2.4384;                           !- X,Y,Z Vertex 4 {m}

OS:SpaceType,
  {09623012-ecd2-4369-81b2-bd9484a3b9ad}, !- Handle
  Space Type 1,                           !- Name
  ,                                       !- Default Construction Set Name
  ,                                       !- Default Schedule Set Name
  ,                                       !- Group Rendering Name
  ,                                       !- Design Specification Outdoor Air Object Name
  ,                                       !- Standards Building Type
  living;                                 !- Standards Space Type

OS:Space,
  {0388bb25-39c5-45ae-baa7-567235279c0e}, !- Handle
  living space|story 2,                   !- Name
  {09623012-ecd2-4369-81b2-bd9484a3b9ad}, !- Space Type Name
  ,                                       !- Default Construction Set Name
  ,                                       !- Default Schedule Set Name
  -0,                                     !- Direction of Relative North {deg}
  0,                                      !- X Origin {m}
  0,                                      !- Y Origin {m}
  3.3528,                                 !- Z Origin {m}
  ,                                       !- Building Story Name
  {c2d6d730-0c74-41a9-a608-61c0514ff898}, !- Thermal Zone Name
  ,                                       !- Part of Total Floor Area
  ,                                       !- Design Specification Outdoor Air Object Name
  {bdc23ddc-3163-44aa-b11d-20285415f791}; !- Building Unit Name

OS:Surface,
  {6d896894-3cf4-42c4-a83f-896943ccc8f0}, !- Handle
  Surface 7,                              !- Name
  Floor,                                  !- Surface Type
  ,                                       !- Construction Name
  {0388bb25-39c5-45ae-baa7-567235279c0e}, !- Space Name
  Surface,                                !- Outside Boundary Condition
  {ce61a9d4-536b-4103-9d64-0bd71191bae3}, !- Outside Boundary Condition Object
  NoSun,                                  !- Sun Exposure
  NoWind,                                 !- Wind Exposure
  ,                                       !- View Factor to Ground
  ,                                       !- Number of Vertices
  0, 0, -4.44089209850063e-016,           !- X,Y,Z Vertex 1 {m}
  0, 6.81553519541936, -4.44089209850063e-016, !- X,Y,Z Vertex 2 {m}
  13.6310703908387, 6.81553519541936, -4.44089209850063e-016, !- X,Y,Z Vertex 3 {m}
  13.6310703908387, 0, -4.44089209850063e-016; !- X,Y,Z Vertex 4 {m}

OS:Surface,
  {9249164e-caf6-4352-8d10-5d1f994687e9}, !- Handle
  Surface 8,                              !- Name
  Wall,                                   !- Surface Type
  ,                                       !- Construction Name
  {0388bb25-39c5-45ae-baa7-567235279c0e}, !- Space Name
  Outdoors,                               !- Outside Boundary Condition
  ,                                       !- Outside Boundary Condition Object
  SunExposed,                             !- Sun Exposure
  WindExposed,                            !- Wind Exposure
  ,                                       !- View Factor to Ground
  ,                                       !- Number of Vertices
  0, 6.81553519541936, 2.4384,            !- X,Y,Z Vertex 1 {m}
  0, 6.81553519541936, -4.44089209850063e-016, !- X,Y,Z Vertex 2 {m}
  0, 0, -4.44089209850063e-016,           !- X,Y,Z Vertex 3 {m}
  0, 0, 2.4384;                           !- X,Y,Z Vertex 4 {m}

OS:Surface,
  {1b4cbeaf-9f8a-43d2-bab5-097c847562ca}, !- Handle
  Surface 9,                              !- Name
  Wall,                                   !- Surface Type
  ,                                       !- Construction Name
  {0388bb25-39c5-45ae-baa7-567235279c0e}, !- Space Name
  Outdoors,                               !- Outside Boundary Condition
  ,                                       !- Outside Boundary Condition Object
  SunExposed,                             !- Sun Exposure
  WindExposed,                            !- Wind Exposure
  ,                                       !- View Factor to Ground
  ,                                       !- Number of Vertices
  13.6310703908387, 6.81553519541936, 2.4384, !- X,Y,Z Vertex 1 {m}
  13.6310703908387, 6.81553519541936, -4.44089209850063e-016, !- X,Y,Z Vertex 2 {m}
  0, 6.81553519541936, -4.44089209850063e-016, !- X,Y,Z Vertex 3 {m}
  0, 6.81553519541936, 2.4384;            !- X,Y,Z Vertex 4 {m}

OS:Surface,
  {0e813e0c-6d34-4ddc-8ec3-87fef8a2c562}, !- Handle
  Surface 10,                             !- Name
  Wall,                                   !- Surface Type
  ,                                       !- Construction Name
  {0388bb25-39c5-45ae-baa7-567235279c0e}, !- Space Name
  Outdoors,                               !- Outside Boundary Condition
  ,                                       !- Outside Boundary Condition Object
  SunExposed,                             !- Sun Exposure
  WindExposed,                            !- Wind Exposure
  ,                                       !- View Factor to Ground
  ,                                       !- Number of Vertices
  13.6310703908387, 0, 2.4384,            !- X,Y,Z Vertex 1 {m}
  13.6310703908387, 0, -4.44089209850063e-016, !- X,Y,Z Vertex 2 {m}
  13.6310703908387, 6.81553519541936, -4.44089209850063e-016, !- X,Y,Z Vertex 3 {m}
  13.6310703908387, 6.81553519541936, 2.4384; !- X,Y,Z Vertex 4 {m}

OS:Surface,
  {aa545210-518f-4a1b-b6da-9196e1263cbf}, !- Handle
  Surface 11,                             !- Name
  Wall,                                   !- Surface Type
  ,                                       !- Construction Name
  {0388bb25-39c5-45ae-baa7-567235279c0e}, !- Space Name
  Outdoors,                               !- Outside Boundary Condition
  ,                                       !- Outside Boundary Condition Object
  SunExposed,                             !- Sun Exposure
  WindExposed,                            !- Wind Exposure
  ,                                       !- View Factor to Ground
  ,                                       !- Number of Vertices
  0, 0, 2.4384,                           !- X,Y,Z Vertex 1 {m}
  0, 0, -4.44089209850063e-016,           !- X,Y,Z Vertex 2 {m}
  13.6310703908387, 0, -4.44089209850063e-016, !- X,Y,Z Vertex 3 {m}
  13.6310703908387, 0, 2.4384;            !- X,Y,Z Vertex 4 {m}

OS:Surface,
  {5aec36ae-e36f-4f94-b802-62593739151b}, !- Handle
  Surface 12,                             !- Name
  RoofCeiling,                            !- Surface Type
  ,                                       !- Construction Name
  {0388bb25-39c5-45ae-baa7-567235279c0e}, !- Space Name
  Surface,                                !- Outside Boundary Condition
  {f721dcff-41fa-4c2b-92dc-cb10df13c209}, !- Outside Boundary Condition Object
  NoSun,                                  !- Sun Exposure
  NoWind,                                 !- Wind Exposure
  ,                                       !- View Factor to Ground
  ,                                       !- Number of Vertices
  13.6310703908387, 0, 2.4384,            !- X,Y,Z Vertex 1 {m}
  13.6310703908387, 6.81553519541936, 2.4384, !- X,Y,Z Vertex 2 {m}
  0, 6.81553519541936, 2.4384,            !- X,Y,Z Vertex 3 {m}
  0, 0, 2.4384;                           !- X,Y,Z Vertex 4 {m}

OS:Surface,
  {f721dcff-41fa-4c2b-92dc-cb10df13c209}, !- Handle
  Surface 13,                             !- Name
  Floor,                                  !- Surface Type
  ,                                       !- Construction Name
  {684ee62a-f91d-477f-8222-5b8fcbc3a540}, !- Space Name
  Surface,                                !- Outside Boundary Condition
  {5aec36ae-e36f-4f94-b802-62593739151b}, !- Outside Boundary Condition Object
  NoSun,                                  !- Sun Exposure
  NoWind,                                 !- Wind Exposure
  ,                                       !- View Factor to Ground
  ,                                       !- Number of Vertices
  0, 6.81553519541936, 0,                 !- X,Y,Z Vertex 1 {m}
  13.6310703908387, 6.81553519541936, 0,  !- X,Y,Z Vertex 2 {m}
  13.6310703908387, 0, 0,                 !- X,Y,Z Vertex 3 {m}
  0, 0, 0;                                !- X,Y,Z Vertex 4 {m}

OS:Surface,
  {16af1dc7-86e2-4c8f-b3ca-f3ac1ca914e7}, !- Handle
  Surface 14,                             !- Name
  RoofCeiling,                            !- Surface Type
  ,                                       !- Construction Name
  {684ee62a-f91d-477f-8222-5b8fcbc3a540}, !- Space Name
  Outdoors,                               !- Outside Boundary Condition
  ,                                       !- Outside Boundary Condition Object
  SunExposed,                             !- Sun Exposure
  WindExposed,                            !- Wind Exposure
  ,                                       !- View Factor to Ground
  ,                                       !- Number of Vertices
  13.6310703908387, 3.40776759770968, 1.70388379885484, !- X,Y,Z Vertex 1 {m}
  0, 3.40776759770968, 1.70388379885484,  !- X,Y,Z Vertex 2 {m}
  0, 0, 0,                                !- X,Y,Z Vertex 3 {m}
  13.6310703908387, 0, 0;                 !- X,Y,Z Vertex 4 {m}

OS:Surface,
  {a451a273-451d-4f64-82db-2f1ff6cf0c61}, !- Handle
  Surface 15,                             !- Name
  RoofCeiling,                            !- Surface Type
  ,                                       !- Construction Name
  {684ee62a-f91d-477f-8222-5b8fcbc3a540}, !- Space Name
  Outdoors,                               !- Outside Boundary Condition
  ,                                       !- Outside Boundary Condition Object
  SunExposed,                             !- Sun Exposure
  WindExposed,                            !- Wind Exposure
  ,                                       !- View Factor to Ground
  ,                                       !- Number of Vertices
  0, 3.40776759770968, 1.70388379885484,  !- X,Y,Z Vertex 1 {m}
  13.6310703908387, 3.40776759770968, 1.70388379885484, !- X,Y,Z Vertex 2 {m}
  13.6310703908387, 6.81553519541936, 0,  !- X,Y,Z Vertex 3 {m}
  0, 6.81553519541936, 0;                 !- X,Y,Z Vertex 4 {m}

OS:Surface,
  {e211f53b-1711-453c-ad3b-53111eef0f90}, !- Handle
  Surface 16,                             !- Name
  Wall,                                   !- Surface Type
  ,                                       !- Construction Name
  {684ee62a-f91d-477f-8222-5b8fcbc3a540}, !- Space Name
  Outdoors,                               !- Outside Boundary Condition
  ,                                       !- Outside Boundary Condition Object
  SunExposed,                             !- Sun Exposure
  WindExposed,                            !- Wind Exposure
  ,                                       !- View Factor to Ground
  ,                                       !- Number of Vertices
  0, 3.40776759770968, 1.70388379885484,  !- X,Y,Z Vertex 1 {m}
  0, 6.81553519541936, 0,                 !- X,Y,Z Vertex 2 {m}
  0, 0, 0;                                !- X,Y,Z Vertex 3 {m}

OS:Surface,
  {35b3e83e-6254-4404-ad64-cf6b382d620d}, !- Handle
  Surface 17,                             !- Name
  Wall,                                   !- Surface Type
  ,                                       !- Construction Name
  {684ee62a-f91d-477f-8222-5b8fcbc3a540}, !- Space Name
  Outdoors,                               !- Outside Boundary Condition
  ,                                       !- Outside Boundary Condition Object
  SunExposed,                             !- Sun Exposure
  WindExposed,                            !- Wind Exposure
  ,                                       !- View Factor to Ground
  ,                                       !- Number of Vertices
  13.6310703908387, 3.40776759770968, 1.70388379885484, !- X,Y,Z Vertex 1 {m}
  13.6310703908387, 0, 0,                 !- X,Y,Z Vertex 2 {m}
  13.6310703908387, 6.81553519541936, 0;  !- X,Y,Z Vertex 3 {m}

OS:Space,
  {684ee62a-f91d-477f-8222-5b8fcbc3a540}, !- Handle
  unfinished attic space,                 !- Name
  {8a41015a-11df-49cd-a36d-eb5d8e2a7c30}, !- Space Type Name
  ,                                       !- Default Construction Set Name
  ,                                       !- Default Schedule Set Name
  -0,                                     !- Direction of Relative North {deg}
  0,                                      !- X Origin {m}
  0,                                      !- Y Origin {m}
  5.7912,                                 !- Z Origin {m}
  ,                                       !- Building Story Name
  {218b0aa2-5040-4e90-9feb-69424e3d77cf}; !- Thermal Zone Name

OS:ThermalZone,
  {218b0aa2-5040-4e90-9feb-69424e3d77cf}, !- Handle
  unfinished attic zone,                  !- Name
  ,                                       !- Multiplier
  ,                                       !- Ceiling Height {m}
  ,                                       !- Volume {m3}
  ,                                       !- Floor Area {m2}
  ,                                       !- Zone Inside Convection Algorithm
  ,                                       !- Zone Outside Convection Algorithm
  ,                                       !- Zone Conditioning Equipment List Name