!- NOTE: Auto-generated from /test/osw_files/SFA_4units_1story_FB_UA_3Beds_2Baths_Denver_WHTank.osw

OS:Version,
  {fbe4434e-e730-4a91-96d1-11adeaabf131}, !- Handle
  2.6.2;                                  !- Version Identifier

OS:Building,
  {f99beec0-2075-4f6b-90ac-a0c77ca370c1}, !- Handle
  Building 1,                             !- Name
  ,                                       !- Building Sector Type
  0,                                      !- North Axis {deg}
  ,                                       !- Nominal Floor to Floor Height {m}
  ,                                       !- Space Type Name
  ,                                       !- Default Construction Set Name
  ,                                       !- Default Schedule Set Name
  2,                                      !- Standards Number of Stories
  1,                                      !- Standards Number of Above Ground Stories
  singlefamilyattached,                   !- Standards Building Type
  4;                                      !- Standards Number of Living Units

OS:Facility,
  {b27c39eb-505a-4013-a2ef-8e27916fbfd3}; !- Handle

OS:Site,
  {74cdf73b-9b0a-4550-abe5-8825372c52a7}, !- Handle
  Denver Intl Ap_CO_USA,                  !- Name
  39.83,                                  !- Latitude {deg}
  -104.65,                                !- Longitude {deg}
  -7,                                     !- Time Zone {hr}
  1650,                                   !- Elevation {m}
  ;                                       !- Terrain

OS:SimulationControl,
  {6d3a52c7-2752-46d6-8224-541b1d10814c}, !- Handle
  ,                                       !- Do Zone Sizing Calculation
  ,                                       !- Do System Sizing Calculation
  ,                                       !- Do Plant Sizing Calculation
  No;                                     !- Run Simulation for Sizing Periods

OS:Sizing:Parameters,
  {d9632ec7-9751-4ccf-9537-037af0983f1c}, !- Handle
  1.25,                                   !- Heating Sizing Factor
  1.15;                                   !- Cooling Sizing Factor

OS:Timestep,
  {fb370179-874b-496c-806e-e1d2d631f861}, !- Handle
  6;                                      !- Number of Timesteps per Hour

OS:ShadowCalculation,
  {b3b7e398-fc00-4d8f-8368-d68e5b6a2a03}, !- Handle
  20,                                     !- Calculation Frequency
  200;                                    !- Maximum Figures in Shadow Overlap Calculations

OS:HeatBalanceAlgorithm,
  {8e4561ab-1181-42af-b6da-069c98779eb8}, !- Handle
  ConductionTransferFunction,             !- Algorithm
  200;                                    !- Surface Temperature Upper Limit {C}

OS:RunPeriod,
  {2c6bbc65-a283-444c-952e-857baa0e7b3b}, !- Handle
  Run Period 1,                           !- Name
  1,                                      !- Begin Month
  1,                                      !- Begin Day of Month
  12,                                     !- End Month
  31,                                     !- End Day of Month
  ,                                       !- Use Weather File Holidays and Special Days
  ,                                       !- Use Weather File Daylight Saving Period
  ,                                       !- Apply Weekend Holiday Rule
  ,                                       !- Use Weather File Rain Indicators
  ,                                       !- Use Weather File Snow Indicators
  ;                                       !- Number of Times Runperiod to be Repeated

OS:LifeCycleCost:Parameters,
  {c0bd54ce-6c3a-48bb-9654-04457c795279}, !- Handle
  ,                                       !- Analysis Type
  ,                                       !- Discounting Convention
  ,                                       !- Inflation Approach
  ,                                       !- Real Discount Rate
  ,                                       !- Nominal Discount Rate
  ,                                       !- Inflation
  ,                                       !- Base Date Month
  ,                                       !- Base Date Year
  ,                                       !- Service Date Month
  ,                                       !- Service Date Year
  ;                                       !- Length of Study Period in Years

OS:ThermalZone,
  {9240b454-654c-4a7c-8b50-7b91593bf9f0}, !- Handle
  living zone,                            !- Name
  ,                                       !- Multiplier
  ,                                       !- Ceiling Height {m}
  ,                                       !- Volume {m3}
  ,                                       !- Floor Area {m2}
  ,                                       !- Zone Inside Convection Algorithm
  ,                                       !- Zone Outside Convection Algorithm
  ,                                       !- Zone Conditioning Equipment List Name
  {ee3a97ba-319b-4b83-bc1d-59fe9ace6f33}, !- Zone Air Inlet Port List
  {7c9f7209-07d9-426b-a027-09edbac1c415}, !- Zone Air Exhaust Port List
  {a8de2c1e-4e37-4868-9bdc-73d5ee8a7111}, !- Zone Air Node Name
  {5f5ddc82-9035-4235-ac7e-c1b750d5f181}, !- Zone Return Air Port List
  ,                                       !- Primary Daylighting Control Name
  ,                                       !- Fraction of Zone Controlled by Primary Daylighting Control
  ,                                       !- Secondary Daylighting Control Name
  ,                                       !- Fraction of Zone Controlled by Secondary Daylighting Control
  ,                                       !- Illuminance Map Name
  ,                                       !- Group Rendering Name
  ,                                       !- Thermostat Name
  No;                                     !- Use Ideal Air Loads

OS:Node,
  {99c71864-3662-45db-ba23-37d72380be17}, !- Handle
  Node 1,                                 !- Name
  {a8de2c1e-4e37-4868-9bdc-73d5ee8a7111}, !- Inlet Port
  ;                                       !- Outlet Port

OS:Connection,
  {a8de2c1e-4e37-4868-9bdc-73d5ee8a7111}, !- Handle
  {d75b2c0e-66a7-4c34-b665-be1cd8691a98}, !- Name
  {9240b454-654c-4a7c-8b50-7b91593bf9f0}, !- Source Object
  11,                                     !- Outlet Port
  {99c71864-3662-45db-ba23-37d72380be17}, !- Target Object
  2;                                      !- Inlet Port

OS:PortList,
  {ee3a97ba-319b-4b83-bc1d-59fe9ace6f33}, !- Handle
  {48a65704-3f19-461d-9ef2-76b2759483ac}, !- Name
  {9240b454-654c-4a7c-8b50-7b91593bf9f0}; !- HVAC Component

OS:PortList,
  {7c9f7209-07d9-426b-a027-09edbac1c415}, !- Handle
  {7b80c576-7578-46ed-8bff-760cfe6dde22}, !- Name
  {9240b454-654c-4a7c-8b50-7b91593bf9f0}; !- HVAC Component

OS:PortList,
  {5f5ddc82-9035-4235-ac7e-c1b750d5f181}, !- Handle
  {709fa376-caa6-4008-a957-a2c1c15932a9}, !- Name
  {9240b454-654c-4a7c-8b50-7b91593bf9f0}; !- HVAC Component

OS:Sizing:Zone,
  {81b964d1-7db9-45db-b164-0c51bbab256a}, !- Handle
  {9240b454-654c-4a7c-8b50-7b91593bf9f0}, !- Zone or ZoneList Name
  SupplyAirTemperature,                   !- Zone Cooling Design Supply Air Temperature Input Method
  14,                                     !- Zone Cooling Design Supply Air Temperature {C}
  11.11,                                  !- Zone Cooling Design Supply Air Temperature Difference {deltaC}
  SupplyAirTemperature,                   !- Zone Heating Design Supply Air Temperature Input Method
  40,                                     !- Zone Heating Design Supply Air Temperature {C}
  11.11,                                  !- Zone Heating Design Supply Air Temperature Difference {deltaC}
  0.0085,                                 !- Zone Cooling Design Supply Air Humidity Ratio {kg-H2O/kg-air}
  0.008,                                  !- Zone Heating Design Supply Air Humidity Ratio {kg-H2O/kg-air}
  ,                                       !- Zone Heating Sizing Factor
  ,                                       !- Zone Cooling Sizing Factor
  DesignDay,                              !- Cooling Design Air Flow Method
  ,                                       !- Cooling Design Air Flow Rate {m3/s}
  ,                                       !- Cooling Minimum Air Flow per Zone Floor Area {m3/s-m2}
  ,                                       !- Cooling Minimum Air Flow {m3/s}
  ,                                       !- Cooling Minimum Air Flow Fraction
  DesignDay,                              !- Heating Design Air Flow Method
  ,                                       !- Heating Design Air Flow Rate {m3/s}
  ,                                       !- Heating Maximum Air Flow per Zone Floor Area {m3/s-m2}
  ,                                       !- Heating Maximum Air Flow {m3/s}
  ,                                       !- Heating Maximum Air Flow Fraction
  ,                                       !- Design Zone Air Distribution Effectiveness in Cooling Mode
  ,                                       !- Design Zone Air Distribution Effectiveness in Heating Mode
  No,                                     !- Account for Dedicated Outdoor Air System
  NeutralSupplyAir,                       !- Dedicated Outdoor Air System Control Strategy
  autosize,                               !- Dedicated Outdoor Air Low Setpoint Temperature for Design {C}
  autosize;                               !- Dedicated Outdoor Air High Setpoint Temperature for Design {C}

OS:ZoneHVAC:EquipmentList,
  {021cddc9-d29a-4256-ba1a-290296765c1c}, !- Handle
  Zone HVAC Equipment List 1,             !- Name
  {9240b454-654c-4a7c-8b50-7b91593bf9f0}; !- Thermal Zone

OS:Space,
  {63293652-cc6e-4764-9b3c-19a3a2b16a12}, !- Handle
  living space,                           !- Name
  {93f2515d-8598-4a97-831d-ab77f6e6647a}, !- Space Type Name
  ,                                       !- Default Construction Set Name
  ,                                       !- Default Schedule Set Name
  ,                                       !- Direction of Relative North {deg}
  ,                                       !- X Origin {m}
  ,                                       !- Y Origin {m}
  ,                                       !- Z Origin {m}
  ,                                       !- Building Story Name
  {9240b454-654c-4a7c-8b50-7b91593bf9f0}, !- Thermal Zone Name
  ,                                       !- Part of Total Floor Area
  ,                                       !- Design Specification Outdoor Air Object Name
  {0b767688-b8da-425b-9d9d-395cf07a2538}; !- Building Unit Name

OS:Surface,
  {d4d0ab12-05fb-4302-85e9-42da83579588}, !- Handle
  Surface 1,                              !- Name
  Floor,                                  !- Surface Type
  ,                                       !- Construction Name
  {63293652-cc6e-4764-9b3c-19a3a2b16a12}, !- Space Name
  Surface,                                !- Outside Boundary Condition
  {0ed98c8a-3b5b-42a7-9124-0078c6c43ece}, !- Outside Boundary Condition Object
  NoSun,                                  !- Sun Exposure
  NoWind,                                 !- Wind Exposure
  ,                                       !- View Factor to Ground
  ,                                       !- Number of Vertices
  0, -9.144, 0,                           !- X,Y,Z Vertex 1 {m}
  0, 0, 0,                                !- X,Y,Z Vertex 2 {m}
  4.572, 0, 0,                            !- X,Y,Z Vertex 3 {m}
  4.572, -9.144, 0;                       !- X,Y,Z Vertex 4 {m}

OS:Surface,
  {8de55d41-84a7-4183-8e5c-4bb0810432e1}, !- Handle
  Surface 2,                              !- Name
  Wall,                                   !- Surface Type
  ,                                       !- Construction Name
  {63293652-cc6e-4764-9b3c-19a3a2b16a12}, !- Space Name
  Outdoors,                               !- Outside Boundary Condition
  ,                                       !- Outside Boundary Condition Object
  SunExposed,                             !- Sun Exposure
  WindExposed,                            !- Wind Exposure
  ,                                       !- View Factor to Ground
  ,                                       !- Number of Vertices
  0, 0, 2.4384,                           !- X,Y,Z Vertex 1 {m}
  0, 0, 0,                                !- X,Y,Z Vertex 2 {m}
  0, -9.144, 0,                           !- X,Y,Z Vertex 3 {m}
  0, -9.144, 2.4384;                      !- X,Y,Z Vertex 4 {m}

OS:Surface,
  {51abb77e-1be4-4576-aab5-77d95e0f3b52}, !- Handle
  Surface 3,                              !- Name
  Wall,                                   !- Surface Type
  ,                                       !- Construction Name
  {63293652-cc6e-4764-9b3c-19a3a2b16a12}, !- Space Name
  Outdoors,                               !- Outside Boundary Condition
  ,                                       !- Outside Boundary Condition Object
  SunExposed,                             !- Sun Exposure
  WindExposed,                            !- Wind Exposure
  ,                                       !- View Factor to Ground
  ,                                       !- Number of Vertices
  4.572, 0, 2.4384,                       !- X,Y,Z Vertex 1 {m}
  4.572, 0, 0,                            !- X,Y,Z Vertex 2 {m}
  0, 0, 0,                                !- X,Y,Z Vertex 3 {m}
  0, 0, 2.4384;                           !- X,Y,Z Vertex 4 {m}

OS:Surface,
  {30f80406-fc9a-4448-880a-b2a978e3ba89}, !- Handle
  Surface 4,                              !- Name
  Wall,                                   !- Surface Type
  ,                                       !- Construction Name
  {63293652-cc6e-4764-9b3c-19a3a2b16a12}, !- Space Name
  Surface,                                !- Outside Boundary Condition
  {9582e6e8-3908-4e31-b828-a6561fb34b71}, !- Outside Boundary Condition Object
  NoSun,                                  !- Sun Exposure
  NoWind,                                 !- Wind Exposure
  ,                                       !- View Factor to Ground
  ,                                       !- Number of Vertices
  4.572, -9.144, 2.4384,                  !- X,Y,Z Vertex 1 {m}
  4.572, -9.144, 0,                       !- X,Y,Z Vertex 2 {m}
  4.572, 0, 0,                            !- X,Y,Z Vertex 3 {m}
  4.572, 0, 2.4384;                       !- X,Y,Z Vertex 4 {m}

OS:Surface,
  {cb7a7bcd-cc6b-46b8-9e7f-80c80fededc3}, !- Handle
  Surface 5,                              !- Name
  Wall,                                   !- Surface Type
  ,                                       !- Construction Name
  {63293652-cc6e-4764-9b3c-19a3a2b16a12}, !- Space Name
  Outdoors,                               !- Outside Boundary Condition
  ,                                       !- Outside Boundary Condition Object
  SunExposed,                             !- Sun Exposure
  WindExposed,                            !- Wind Exposure
  ,                                       !- View Factor to Ground
  ,                                       !- Number of Vertices
  0, -9.144, 2.4384,                      !- X,Y,Z Vertex 1 {m}
  0, -9.144, 0,                           !- X,Y,Z Vertex 2 {m}
  4.572, -9.144, 0,                       !- X,Y,Z Vertex 3 {m}
  4.572, -9.144, 2.4384;                  !- X,Y,Z Vertex 4 {m}

OS:Surface,
  {87c4b3e6-febf-490c-9523-2aee5361e5ee}, !- Handle
  Surface 6,                              !- Name
  RoofCeiling,                            !- Surface Type
  ,                                       !- Construction Name
  {63293652-cc6e-4764-9b3c-19a3a2b16a12}, !- Space Name
  Surface,                                !- Outside Boundary Condition
  {acf6f881-497d-4ff3-b3ef-65b18abe4e86}, !- Outside Boundary Condition Object
  NoSun,                                  !- Sun Exposure
  NoWind,                                 !- Wind Exposure
  ,                                       !- View Factor to Ground
  ,                                       !- Number of Vertices
  4.572, -9.144, 2.4384,                  !- X,Y,Z Vertex 1 {m}
  4.572, 0, 2.4384,                       !- X,Y,Z Vertex 2 {m}
  0, 0, 2.4384,                           !- X,Y,Z Vertex 3 {m}
  0, -9.144, 2.4384;                      !- X,Y,Z Vertex 4 {m}

OS:SpaceType,
  {93f2515d-8598-4a97-831d-ab77f6e6647a}, !- Handle
  Space Type 1,                           !- Name
  ,                                       !- Default Construction Set Name
  ,                                       !- Default Schedule Set Name
  ,                                       !- Group Rendering Name
  ,                                       !- Design Specification Outdoor Air Object Name
  ,                                       !- Standards Building Type
  living;                                 !- Standards Space Type

OS:ThermalZone,
  {ae233b8f-7584-4525-bf17-b59217328f73}, !- Handle
  living zone|unit 2,                     !- Name
  ,                                       !- Multiplier
  ,                                       !- Ceiling Height {m}
  ,                                       !- Volume {m3}
  ,                                       !- Floor Area {m2}
  ,                                       !- Zone Inside Convection Algorithm
  ,                                       !- Zone Outside Convection Algorithm
  ,                                       !- Zone Conditioning Equipment List Name
  {1d1240e5-10f1-4da7-901b-3822c7543199}, !- Zone Air Inlet Port List
  {23bab768-7586-4b12-969a-2a6c04340a8b}, !- Zone Air Exhaust Port List
  {63694578-3dfd-44b4-b9fa-55b09668921b}, !- Zone Air Node Name
  {1922f39c-1342-497e-b31a-cd8ba972b607}, !- Zone Return Air Port List
  ,                                       !- Primary Daylighting Control Name
  ,                                       !- Fraction of Zone Controlled by Primary Daylighting Control
  ,                                       !- Secondary Daylighting Control Name
  ,                                       !- Fraction of Zone Controlled by Secondary Daylighting Control
  ,                                       !- Illuminance Map Name
  ,                                       !- Group Rendering Name
  ,                                       !- Thermostat Name
  No;                                     !- Use Ideal Air Loads

OS:Node,
  {374e1d70-bd02-4de0-a99e-88700779958f}, !- Handle
  Node 2,                                 !- Name
  {63694578-3dfd-44b4-b9fa-55b09668921b}, !- Inlet Port
  ;                                       !- Outlet Port

OS:Connection,
  {63694578-3dfd-44b4-b9fa-55b09668921b}, !- Handle
  {d46994bb-08ab-418e-923a-065ac6badd4a}, !- Name
  {ae233b8f-7584-4525-bf17-b59217328f73}, !- Source Object
  11,                                     !- Outlet Port
  {374e1d70-bd02-4de0-a99e-88700779958f}, !- Target Object
  2;                                      !- Inlet Port

OS:PortList,
  {1d1240e5-10f1-4da7-901b-3822c7543199}, !- Handle
  {133bc268-9f56-46ac-957f-49fc19d13027}, !- Name
  {ae233b8f-7584-4525-bf17-b59217328f73}; !- HVAC Component

OS:PortList,
  {23bab768-7586-4b12-969a-2a6c04340a8b}, !- Handle
  {636b1811-695a-43fa-baba-cc95098fc2f5}, !- Name
  {ae233b8f-7584-4525-bf17-b59217328f73}; !- HVAC Component

OS:PortList,
  {1922f39c-1342-497e-b31a-cd8ba972b607}, !- Handle
  {a993a37d-5f55-4b80-8393-7091d8d7af92}, !- Name
  {ae233b8f-7584-4525-bf17-b59217328f73}; !- HVAC Component

OS:Sizing:Zone,
  {ca83a6a8-f8ec-41de-9f2b-53c9fa9213f3}, !- Handle
  {ae233b8f-7584-4525-bf17-b59217328f73}, !- Zone or ZoneList Name
  SupplyAirTemperature,                   !- Zone Cooling Design Supply Air Temperature Input Method
  14,                                     !- Zone Cooling Design Supply Air Temperature {C}
  11.11,                                  !- Zone Cooling Design Supply Air Temperature Difference {deltaC}
  SupplyAirTemperature,                   !- Zone Heating Design Supply Air Temperature Input Method
  40,                                     !- Zone Heating Design Supply Air Temperature {C}
  11.11,                                  !- Zone Heating Design Supply Air Temperature Difference {deltaC}
  0.0085,                                 !- Zone Cooling Design Supply Air Humidity Ratio {kg-H2O/kg-air}
  0.008,                                  !- Zone Heating Design Supply Air Humidity Ratio {kg-H2O/kg-air}
  ,                                       !- Zone Heating Sizing Factor
  ,                                       !- Zone Cooling Sizing Factor
  DesignDay,                              !- Cooling Design Air Flow Method
  ,                                       !- Cooling Design Air Flow Rate {m3/s}
  ,                                       !- Cooling Minimum Air Flow per Zone Floor Area {m3/s-m2}
  ,                                       !- Cooling Minimum Air Flow {m3/s}
  ,                                       !- Cooling Minimum Air Flow Fraction
  DesignDay,                              !- Heating Design Air Flow Method
  ,                                       !- Heating Design Air Flow Rate {m3/s}
  ,                                       !- Heating Maximum Air Flow per Zone Floor Area {m3/s-m2}
  ,                                       !- Heating Maximum Air Flow {m3/s}
  ,                                       !- Heating Maximum Air Flow Fraction
  ,                                       !- Design Zone Air Distribution Effectiveness in Cooling Mode
  ,                                       !- Design Zone Air Distribution Effectiveness in Heating Mode
  No,                                     !- Account for Dedicated Outdoor Air System
  NeutralSupplyAir,                       !- Dedicated Outdoor Air System Control Strategy
  autosize,                               !- Dedicated Outdoor Air Low Setpoint Temperature for Design {C}
  autosize;                               !- Dedicated Outdoor Air High Setpoint Temperature for Design {C}

OS:ZoneHVAC:EquipmentList,
  {1891a391-5091-449e-b38a-8bafb33b61e7}, !- Handle
  Zone HVAC Equipment List 2,             !- Name
  {ae233b8f-7584-4525-bf17-b59217328f73}; !- Thermal Zone

OS:Space,
  {22cc6d0f-b1b8-4897-bdb5-5de8e96fdc30}, !- Handle
  living space|unit 2|story 1,            !- Name
  {93f2515d-8598-4a97-831d-ab77f6e6647a}, !- Space Type Name
  ,                                       !- Default Construction Set Name
  ,                                       !- Default Schedule Set Name
  -0,                                     !- Direction of Relative North {deg}
  0,                                      !- X Origin {m}
  0,                                      !- Y Origin {m}
  0,                                      !- Z Origin {m}
  ,                                       !- Building Story Name
  {ae233b8f-7584-4525-bf17-b59217328f73}, !- Thermal Zone Name
  ,                                       !- Part of Total Floor Area
  ,                                       !- Design Specification Outdoor Air Object Name
  {2395b075-393b-4ea5-9b69-666028aebfbb}; !- Building Unit Name

OS:Surface,
  {9582e6e8-3908-4e31-b828-a6561fb34b71}, !- Handle
  Surface 12,                             !- Name
  Wall,                                   !- Surface Type
  ,                                       !- Construction Name
  {22cc6d0f-b1b8-4897-bdb5-5de8e96fdc30}, !- Space Name
  Surface,                                !- Outside Boundary Condition
  {30f80406-fc9a-4448-880a-b2a978e3ba89}, !- Outside Boundary Condition Object
  NoSun,                                  !- Sun Exposure
  NoWind,                                 !- Wind Exposure
  ,                                       !- View Factor to Ground
  ,                                       !- Number of Vertices
  4.572, 0, 2.4384,                       !- X,Y,Z Vertex 1 {m}
  4.572, 0, 0,                            !- X,Y,Z Vertex 2 {m}
  4.572, -9.144, 0,                       !- X,Y,Z Vertex 3 {m}
  4.572, -9.144, 2.4384;                  !- X,Y,Z Vertex 4 {m}

OS:Surface,
  {c92a7dd0-24db-408f-b5b9-87659939f9d1}, !- Handle
  Surface 13,                             !- Name
  Wall,                                   !- Surface Type
  ,                                       !- Construction Name
  {22cc6d0f-b1b8-4897-bdb5-5de8e96fdc30}, !- Space Name
  Surface,                                !- Outside Boundary Condition
  {f4d15193-06f0-463f-a744-1cc393306d73}, !- Outside Boundary Condition Object
  NoSun,                                  !- Sun Exposure
  NoWind,                                 !- Wind Exposure
  ,                                       !- View Factor to Ground
  ,                                       !- Number of Vertices
  9.144, -9.144, 2.4384,                  !- X,Y,Z Vertex 1 {m}
  9.144, -9.144, 0,                       !- X,Y,Z Vertex 2 {m}
  9.144, 0, 0,                            !- X,Y,Z Vertex 3 {m}
  9.144, 0, 2.4384;                       !- X,Y,Z Vertex 4 {m}

OS:Surface,
  {c475ec26-7c0e-40ba-98db-21daed85225f}, !- Handle
  Surface 14,                             !- Name
  Wall,                                   !- Surface Type
  ,                                       !- Construction Name
  {22cc6d0f-b1b8-4897-bdb5-5de8e96fdc30}, !- Space Name
  Outdoors,                               !- Outside Boundary Condition
  ,                                       !- Outside Boundary Condition Object
  SunExposed,                             !- Sun Exposure
  WindExposed,                            !- Wind Exposure
  ,                                       !- View Factor to Ground
  ,                                       !- Number of Vertices
  9.144, 0, 2.4384,                       !- X,Y,Z Vertex 1 {m}
  9.144, 0, 0,                            !- X,Y,Z Vertex 2 {m}
  4.572, 0, 0,                            !- X,Y,Z Vertex 3 {m}
  4.572, 0, 2.4384;                       !- X,Y,Z Vertex 4 {m}

OS:Surface,
  {0ca6f4c7-0296-430a-a7a6-3cd465278b25}, !- Handle
  Surface 15,                             !- Name
  Floor,                                  !- Surface Type
  ,                                       !- Construction Name
  {22cc6d0f-b1b8-4897-bdb5-5de8e96fdc30}, !- Space Name
  Surface,                                !- Outside Boundary Condition
  {e4fb24dd-bfe3-4eb9-960d-15d08ba327c6}, !- Outside Boundary Condition Object
  NoSun,                                  !- Sun Exposure
  NoWind,                                 !- Wind Exposure
  ,                                       !- View Factor to Ground
  ,                                       !- Number of Vertices
  4.572, -9.144, 0,                       !- X,Y,Z Vertex 1 {m}
  4.572, 0, 0,                            !- X,Y,Z Vertex 2 {m}
  9.144, 0, 0,                            !- X,Y,Z Vertex 3 {m}
  9.144, -9.144, 0;                       !- X,Y,Z Vertex 4 {m}

OS:Surface,
  {2edebbbe-21e2-408d-baa0-ddfc8c0b87df}, !- Handle
  Surface 16,                             !- Name
  RoofCeiling,                            !- Surface Type
  ,                                       !- Construction Name
  {22cc6d0f-b1b8-4897-bdb5-5de8e96fdc30}, !- Space Name
  Surface,                                !- Outside Boundary Condition
  {696a458a-fb9b-4f9d-b388-fcbdac8db39e}, !- Outside Boundary Condition Object
  NoSun,                                  !- Sun Exposure
  NoWind,                                 !- Wind Exposure
  ,                                       !- View Factor to Ground
  ,                                       !- Number of Vertices
  9.144, -9.144, 2.4384,                  !- X,Y,Z Vertex 1 {m}
  9.144, 0, 2.4384,                       !- X,Y,Z Vertex 2 {m}
  4.572, 0, 2.4384,                       !- X,Y,Z Vertex 3 {m}
  4.572, -9.144, 2.4384;                  !- X,Y,Z Vertex 4 {m}

OS:Surface,
  {56184c8d-6fbb-43e4-8dd6-40b80a953a21}, !- Handle
  Surface 17,                             !- Name
  Wall,                                   !- Surface Type
  ,                                       !- Construction Name
  {22cc6d0f-b1b8-4897-bdb5-5de8e96fdc30}, !- Space Name
  Outdoors,                               !- Outside Boundary Condition
  ,                                       !- Outside Boundary Condition Object
  SunExposed,                             !- Sun Exposure
  WindExposed,                            !- Wind Exposure
  ,                                       !- View Factor to Ground
  ,                                       !- Number of Vertices
  4.572, -9.144, 2.4384,                  !- X,Y,Z Vertex 1 {m}
  4.572, -9.144, 0,                       !- X,Y,Z Vertex 2 {m}
  9.144, -9.144, 0,                       !- X,Y,Z Vertex 3 {m}
  9.144, -9.144, 2.4384;                  !- X,Y,Z Vertex 4 {m}

OS:ThermalZone,
  {d5a9c4d1-a7a5-4b1e-99cc-45a5c853ae18}, !- Handle
  living zone|unit 3,                     !- Name
  ,                                       !- Multiplier
  ,                                       !- Ceiling Height {m}
  ,                                       !- Volume {m3}
  ,                                       !- Floor Area {m2}
  ,                                       !- Zone Inside Convection Algorithm
  ,                                       !- Zone Outside Convection Algorithm
  ,                                       !- Zone Conditioning Equipment List Name
  {9243f021-d2f2-4796-a768-17d710166d71}, !- Zone Air Inlet Port List
  {8c69cef7-88c5-4833-9c2a-56724a336502}, !- Zone Air Exhaust Port List
  {535e98de-ae82-4f0d-8b53-ee41537fa86d}, !- Zone Air Node Name
  {c97d630e-2f3d-4785-8576-7637cc3c80c5}, !- Zone Return Air Port List
  ,                                       !- Primary Daylighting Control Name
  ,                                       !- Fraction of Zone Controlled by Primary Daylighting Control
  ,                                       !- Secondary Daylighting Control Name
  ,                                       !- Fraction of Zone Controlled by Secondary Daylighting Control