!- NOTE: Auto-generated from /test/osw_files/SFA_4units_1story_UB_UA_3Beds_2Baths_Denver_WHTank.osw

OS:Version,
  {56b8e869-727a-412e-9b43-a293aff307dc}, !- Handle
  2.6.0;                                  !- Version Identifier

OS:Building,
  {47071e54-2e97-44c5-929e-cf1079d0a23a}, !- Handle
  Building 1,                             !- Name
  ,                                       !- Building Sector Type
  0,                                      !- North Axis {deg}
  ,                                       !- Nominal Floor to Floor Height {m}
  ,                                       !- Space Type Name
  ,                                       !- Default Construction Set Name
  ,                                       !- Default Schedule Set Name
  2,                                      !- Standards Number of Stories
  1,                                      !- Standards Number of Above Ground Stories
  singlefamilyttached,                    !- Standards Building Type
  4;                                      !- Standards Number of Living Units

OS:Facility,
  {a3dad845-0883-4b8c-af2b-ffae22ca1fb8}; !- Handle

OS:Site,
  {2587bb6c-5c6c-4d23-b686-f0037c929e66}, !- Handle
  Denver Intl Ap_CO_USA,                  !- Name
  39.83,                                  !- Latitude {deg}
  -104.65,                                !- Longitude {deg}
  -7,                                     !- Time Zone {hr}
  1650,                                   !- Elevation {m}
  ;                                       !- Terrain

OS:SimulationControl,
  {3427c9d5-6ea5-42c3-8b1d-562fb0b8d432}, !- Handle
  ,                                       !- Do Zone Sizing Calculation
  ,                                       !- Do System Sizing Calculation
  ,                                       !- Do Plant Sizing Calculation
  No;                                     !- Run Simulation for Sizing Periods

OS:Sizing:Parameters,
  {bfd97087-75d6-4afb-9901-5d5488d72c0b}, !- Handle
  1.25,                                   !- Heating Sizing Factor
  1.15;                                   !- Cooling Sizing Factor

OS:Timestep,
  {4ca1c774-6445-4056-a886-cc9d9de2e0e8}, !- Handle
  6;                                      !- Number of Timesteps per Hour

OS:ShadowCalculation,
  {741bf7e8-b071-4b68-8b9a-49560f3ea113}, !- Handle
  20,                                     !- Calculation Frequency
  200;                                    !- Maximum Figures in Shadow Overlap Calculations

OS:HeatBalanceAlgorithm,
  {37773792-65ce-4fc0-9a17-a62aec4a04d0}, !- Handle
  ConductionTransferFunction,             !- Algorithm
  200;                                    !- Surface Temperature Upper Limit {C}

OS:RunPeriod,
  {9ea11d99-69c5-437d-873e-ae1ac98b66ab}, !- Handle
  Run Period 1,                           !- Name
  1,                                      !- Begin Month
  1,                                      !- Begin Day of Month
  12,                                     !- End Month
  31,                                     !- End Day of Month
  ,                                       !- Use Weather File Holidays and Special Days
  ,                                       !- Use Weather File Daylight Saving Period
  ,                                       !- Apply Weekend Holiday Rule
  ,                                       !- Use Weather File Rain Indicators
  ,                                       !- Use Weather File Snow Indicators
  ;                                       !- Number of Times Runperiod to be Repeated

OS:LifeCycleCost:Parameters,
  {d96f436e-b9a6-44c6-b796-c69797a57d0a}, !- Handle
  ,                                       !- Analysis Type
  ,                                       !- Discounting Convention
  ,                                       !- Inflation Approach
  ,                                       !- Real Discount Rate
  ,                                       !- Nominal Discount Rate
  ,                                       !- Inflation
  ,                                       !- Base Date Month
  ,                                       !- Base Date Year
  ,                                       !- Service Date Month
  ,                                       !- Service Date Year
  ;                                       !- Length of Study Period in Years

OS:SurfaceConvectionAlgorithm:Outside,
  {05c5576d-10b5-4e5d-a549-9e855eee1bb1}, !- Handle
  DOE-2;                                  !- Algorithm

OS:SurfaceConvectionAlgorithm:Inside,
  {58badcde-f02f-4e67-98a3-77f41414269b}, !- Handle
  TARP;                                   !- Algorithm

OS:ZoneCapacitanceMultiplier:ResearchSpecial,
  {d5129155-3ee6-46fd-95f5-532b3665216b}, !- Handle
  ,                                       !- Temperature Capacity Multiplier
  15,                                     !- Humidity Capacity Multiplier
  ;                                       !- Carbon Dioxide Capacity Multiplier

OS:ThermalZone,
  {7eb03978-7ea8-4d64-8a6b-68a2e6bb8b47}, !- Handle
  living zone,                            !- Name
  ,                                       !- Multiplier
  ,                                       !- Ceiling Height {m}
  ,                                       !- Volume {m3}
  ,                                       !- Floor Area {m2}
  ,                                       !- Zone Inside Convection Algorithm
  ,                                       !- Zone Outside Convection Algorithm
  ,                                       !- Zone Conditioning Equipment List Name
  {a06df306-90a9-4df5-bdff-933e5d6a88f4}, !- Zone Air Inlet Port List
  {1d61f848-7b22-41c3-9db6-6e94c7d2d7fa}, !- Zone Air Exhaust Port List
  {5cea8301-e49a-4fbb-933d-96e502102215}, !- Zone Air Node Name
  ,                                       !- Zone Return Air Node Name
  ,                                       !- Primary Daylighting Control Name
  ,                                       !- Fraction of Zone Controlled by Primary Daylighting Control
  ,                                       !- Secondary Daylighting Control Name
  ,                                       !- Fraction of Zone Controlled by Secondary Daylighting Control
  ,                                       !- Illuminance Map Name
  ,                                       !- Group Rendering Name
  ,                                       !- Thermostat Name
  No;                                     !- Use Ideal Air Loads

OS:Node,
  {568c9c98-d7d0-4ce3-bdc2-1dc715e9655c}, !- Handle
  Node 1,                                 !- Name
  {5cea8301-e49a-4fbb-933d-96e502102215}, !- Inlet Port
  ;                                       !- Outlet Port

OS:Connection,
  {5cea8301-e49a-4fbb-933d-96e502102215}, !- Handle
  {27df7a31-27a7-43a8-892c-4bf020c75722}, !- Name
  {7eb03978-7ea8-4d64-8a6b-68a2e6bb8b47}, !- Source Object
  11,                                     !- Outlet Port
  {568c9c98-d7d0-4ce3-bdc2-1dc715e9655c}, !- Target Object
  2;                                      !- Inlet Port

OS:PortList,
  {a06df306-90a9-4df5-bdff-933e5d6a88f4}, !- Handle
  {79568aa4-cf00-4d43-a4bc-95e88dbff2b6}, !- Name
  {7eb03978-7ea8-4d64-8a6b-68a2e6bb8b47}; !- HVAC Component

OS:PortList,
  {1d61f848-7b22-41c3-9db6-6e94c7d2d7fa}, !- Handle
  {6afef3e6-e57e-4621-bcbe-50f96b0c6f42}, !- Name
  {7eb03978-7ea8-4d64-8a6b-68a2e6bb8b47}; !- HVAC Component

OS:Sizing:Zone,
  {f80f7f92-d1e6-40be-bdda-436b2328a942}, !- Handle
  {7eb03978-7ea8-4d64-8a6b-68a2e6bb8b47}, !- Zone or ZoneList Name
  SupplyAirTemperature,                   !- Zone Cooling Design Supply Air Temperature Input Method
  14,                                     !- Zone Cooling Design Supply Air Temperature {C}
  11.11,                                  !- Zone Cooling Design Supply Air Temperature Difference {deltaC}
  SupplyAirTemperature,                   !- Zone Heating Design Supply Air Temperature Input Method
  40,                                     !- Zone Heating Design Supply Air Temperature {C}
  11.11,                                  !- Zone Heating Design Supply Air Temperature Difference {deltaC}
  0.0085,                                 !- Zone Cooling Design Supply Air Humidity Ratio {kg-H2O/kg-air}
  0.008,                                  !- Zone Heating Design Supply Air Humidity Ratio {kg-H2O/kg-air}
  ,                                       !- Zone Heating Sizing Factor
  ,                                       !- Zone Cooling Sizing Factor
  DesignDay,                              !- Cooling Design Air Flow Method
  ,                                       !- Cooling Design Air Flow Rate {m3/s}
  ,                                       !- Cooling Minimum Air Flow per Zone Floor Area {m3/s-m2}
  ,                                       !- Cooling Minimum Air Flow {m3/s}
  ,                                       !- Cooling Minimum Air Flow Fraction
  DesignDay,                              !- Heating Design Air Flow Method
  ,                                       !- Heating Design Air Flow Rate {m3/s}
  ,                                       !- Heating Maximum Air Flow per Zone Floor Area {m3/s-m2}
  ,                                       !- Heating Maximum Air Flow {m3/s}
  ,                                       !- Heating Maximum Air Flow Fraction
  ,                                       !- Design Zone Air Distribution Effectiveness in Cooling Mode
  ,                                       !- Design Zone Air Distribution Effectiveness in Heating Mode
  No,                                     !- Account for Dedicated Outdoor Air System
  NeutralSupplyAir,                       !- Dedicated Outdoor Air System Control Strategy
  autosize,                               !- Dedicated Outdoor Air Low Setpoint Temperature for Design {C}
  autosize;                               !- Dedicated Outdoor Air High Setpoint Temperature for Design {C}

OS:ZoneHVAC:EquipmentList,
  {4991cea9-40ca-4851-b693-fa44f6f5f0b0}, !- Handle
  Zone HVAC Equipment List 1,             !- Name
  {7eb03978-7ea8-4d64-8a6b-68a2e6bb8b47}; !- Thermal Zone

OS:Space,
  {9ba5e999-0f75-4f61-b8c8-8527b5bd3d67}, !- Handle
  living space,                           !- Name
  {4838476a-cf12-4c14-9d5e-668fc10a3613}, !- Space Type Name
  ,                                       !- Default Construction Set Name
  ,                                       !- Default Schedule Set Name
  ,                                       !- Direction of Relative North {deg}
  ,                                       !- X Origin {m}
  ,                                       !- Y Origin {m}
  ,                                       !- Z Origin {m}
  ,                                       !- Building Story Name
  {7eb03978-7ea8-4d64-8a6b-68a2e6bb8b47}, !- Thermal Zone Name
  ,                                       !- Part of Total Floor Area
  ,                                       !- Design Specification Outdoor Air Object Name
  {6942a8dc-aed4-4252-95c3-542e22c6a738}; !- Building Unit Name

OS:Surface,
  {e98ccef8-57db-478b-a2c5-494210731fdb}, !- Handle
  Surface 1,                              !- Name
  Floor,                                  !- Surface Type
  ,                                       !- Construction Name
  {9ba5e999-0f75-4f61-b8c8-8527b5bd3d67}, !- Space Name
  Surface,                                !- Outside Boundary Condition
  {6952f996-5974-4b0b-9518-ad8120f7ada4}, !- Outside Boundary Condition Object
  NoSun,                                  !- Sun Exposure
  NoWind,                                 !- Wind Exposure
  ,                                       !- View Factor to Ground
  ,                                       !- Number of Vertices
  0, -12.9315688143396, 0,                !- X,Y,Z Vertex 1 {m}
  0, 0, 0,                                !- X,Y,Z Vertex 2 {m}
  6.46578440716979, 0, 0,                 !- X,Y,Z Vertex 3 {m}
  6.46578440716979, -12.9315688143396, 0; !- X,Y,Z Vertex 4 {m}

OS:Surface,
  {45d7d967-245e-4dc3-8676-7bbffe8b256d}, !- Handle
  Surface 2,                              !- Name
  Wall,                                   !- Surface Type
  ,                                       !- Construction Name
  {9ba5e999-0f75-4f61-b8c8-8527b5bd3d67}, !- Space Name
  Outdoors,                               !- Outside Boundary Condition
  ,                                       !- Outside Boundary Condition Object
  SunExposed,                             !- Sun Exposure
  WindExposed,                            !- Wind Exposure
  ,                                       !- View Factor to Ground
  ,                                       !- Number of Vertices
  0, 0, 2.4384,                           !- X,Y,Z Vertex 1 {m}
  0, 0, 0,                                !- X,Y,Z Vertex 2 {m}
  0, -12.9315688143396, 0,                !- X,Y,Z Vertex 3 {m}
  0, -12.9315688143396, 2.4384;           !- X,Y,Z Vertex 4 {m}

OS:Surface,
  {c4b5132a-4700-4d1f-8eb8-d620ff3b9c47}, !- Handle
  Surface 3,                              !- Name
  Wall,                                   !- Surface Type
  ,                                       !- Construction Name
  {9ba5e999-0f75-4f61-b8c8-8527b5bd3d67}, !- Space Name
  Outdoors,                               !- Outside Boundary Condition
  ,                                       !- Outside Boundary Condition Object
  SunExposed,                             !- Sun Exposure
  WindExposed,                            !- Wind Exposure
  ,                                       !- View Factor to Ground
  ,                                       !- Number of Vertices
  6.46578440716979, 0, 2.4384,            !- X,Y,Z Vertex 1 {m}
  6.46578440716979, 0, 0,                 !- X,Y,Z Vertex 2 {m}
  0, 0, 0,                                !- X,Y,Z Vertex 3 {m}
  0, 0, 2.4384;                           !- X,Y,Z Vertex 4 {m}

OS:Surface,
  {acbaf5c3-d8bf-491e-870b-c96471dc19fb}, !- Handle
  Surface 4,                              !- Name
  Wall,                                   !- Surface Type
  ,                                       !- Construction Name
  {9ba5e999-0f75-4f61-b8c8-8527b5bd3d67}, !- Space Name
  Surface,                                !- Outside Boundary Condition
  {461bf664-7081-4c04-93b3-957e845a6702}, !- Outside Boundary Condition Object
  NoSun,                                  !- Sun Exposure
  NoWind,                                 !- Wind Exposure
  ,                                       !- View Factor to Ground
  ,                                       !- Number of Vertices
  6.46578440716979, -12.9315688143396, 2.4384, !- X,Y,Z Vertex 1 {m}
  6.46578440716979, -12.9315688143396, 0, !- X,Y,Z Vertex 2 {m}
  6.46578440716979, 0, 0,                 !- X,Y,Z Vertex 3 {m}
  6.46578440716979, 0, 2.4384;            !- X,Y,Z Vertex 4 {m}

OS:Surface,
  {b0591122-109b-483c-b0a9-64873eb63305}, !- Handle
  Surface 5,                              !- Name
  Wall,                                   !- Surface Type
  ,                                       !- Construction Name
  {9ba5e999-0f75-4f61-b8c8-8527b5bd3d67}, !- Space Name
  Outdoors,                               !- Outside Boundary Condition
  ,                                       !- Outside Boundary Condition Object
  SunExposed,                             !- Sun Exposure
  WindExposed,                            !- Wind Exposure
  ,                                       !- View Factor to Ground
  ,                                       !- Number of Vertices
  0, -12.9315688143396, 2.4384,           !- X,Y,Z Vertex 1 {m}
  0, -12.9315688143396, 0,                !- X,Y,Z Vertex 2 {m}
  6.46578440716979, -12.9315688143396, 0, !- X,Y,Z Vertex 3 {m}
  6.46578440716979, -12.9315688143396, 2.4384; !- X,Y,Z Vertex 4 {m}

OS:Surface,
  {e8b46021-0207-427f-86be-e74fa884db1a}, !- Handle
  Surface 6,                              !- Name
  RoofCeiling,                            !- Surface Type
  ,                                       !- Construction Name
  {9ba5e999-0f75-4f61-b8c8-8527b5bd3d67}, !- Space Name
  Surface,                                !- Outside Boundary Condition
  {bf0f736a-3e73-40bb-b37f-05edbc3dd086}, !- Outside Boundary Condition Object
  NoSun,                                  !- Sun Exposure
  NoWind,                                 !- Wind Exposure
  ,                                       !- View Factor to Ground
  ,                                       !- Number of Vertices
  6.46578440716979, -12.9315688143396, 2.4384, !- X,Y,Z Vertex 1 {m}
  6.46578440716979, 0, 2.4384,            !- X,Y,Z Vertex 2 {m}
  0, 0, 2.4384,                           !- X,Y,Z Vertex 3 {m}
  0, -12.9315688143396, 2.4384;           !- X,Y,Z Vertex 4 {m}

OS:SpaceType,
  {4838476a-cf12-4c14-9d5e-668fc10a3613}, !- Handle
  Space Type 1,                           !- Name
  ,                                       !- Default Construction Set Name
  ,                                       !- Default Schedule Set Name
  ,                                       !- Group Rendering Name
  ,                                       !- Design Specification Outdoor Air Object Name
  ,                                       !- Standards Building Type
  living;                                 !- Standards Space Type

OS:ThermalZone,
  {0f0881bd-1e42-420b-8788-7de44a5b7614}, !- Handle
  living zone|unit 2,                     !- Name
  ,                                       !- Multiplier
  ,                                       !- Ceiling Height {m}
  ,                                       !- Volume {m3}
  ,                                       !- Floor Area {m2}
  ,                                       !- Zone Inside Convection Algorithm
  ,                                       !- Zone Outside Convection Algorithm
  ,                                       !- Zone Conditioning Equipment List Name
  {4e6e3491-68d6-4015-9fa1-cc68e325e38a}, !- Zone Air Inlet Port List
  {2865f69c-2473-4e8d-8ead-716b1b654536}, !- Zone Air Exhaust Port List
  {445eb8be-24f4-4152-87c1-179da9d08080}, !- Zone Air Node Name
  ,                                       !- Zone Return Air Node Name
  ,                                       !- Primary Daylighting Control Name
  ,                                       !- Fraction of Zone Controlled by Primary Daylighting Control
  ,                                       !- Secondary Daylighting Control Name
  ,                                       !- Fraction of Zone Controlled by Secondary Daylighting Control
  ,                                       !- Illuminance Map Name
  ,                                       !- Group Rendering Name
  ,                                       !- Thermostat Name
  No;                                     !- Use Ideal Air Loads

OS:Node,
  {ee5edb6b-c83a-4209-9462-c73407636228}, !- Handle
  Node 2,                                 !- Name
  {445eb8be-24f4-4152-87c1-179da9d08080}, !- Inlet Port
  ;                                       !- Outlet Port

OS:Connection,
  {445eb8be-24f4-4152-87c1-179da9d08080}, !- Handle
  {1d1c1f87-2b67-42d1-9a13-3933c2492caf}, !- Name
  {0f0881bd-1e42-420b-8788-7de44a5b7614}, !- Source Object
  11,                                     !- Outlet Port
  {ee5edb6b-c83a-4209-9462-c73407636228}, !- Target Object
  2;                                      !- Inlet Port

OS:PortList,
  {4e6e3491-68d6-4015-9fa1-cc68e325e38a}, !- Handle
  {3803f337-5cdf-423e-af7d-b4f46ddd1c52}, !- Name
  {0f0881bd-1e42-420b-8788-7de44a5b7614}; !- HVAC Component

OS:PortList,
  {2865f69c-2473-4e8d-8ead-716b1b654536}, !- Handle
  {574c5508-3fd1-48e8-b8c4-4746fa7d87d3}, !- Name
  {0f0881bd-1e42-420b-8788-7de44a5b7614}; !- HVAC Component

OS:Sizing:Zone,
  {dc517e69-2635-409d-95b4-b53f3ebd8a29}, !- Handle
  {0f0881bd-1e42-420b-8788-7de44a5b7614}, !- Zone or ZoneList Name
  SupplyAirTemperature,                   !- Zone Cooling Design Supply Air Temperature Input Method
  14,                                     !- Zone Cooling Design Supply Air Temperature {C}
  11.11,                                  !- Zone Cooling Design Supply Air Temperature Difference {deltaC}
  SupplyAirTemperature,                   !- Zone Heating Design Supply Air Temperature Input Method
  40,                                     !- Zone Heating Design Supply Air Temperature {C}
  11.11,                                  !- Zone Heating Design Supply Air Temperature Difference {deltaC}
  0.0085,                                 !- Zone Cooling Design Supply Air Humidity Ratio {kg-H2O/kg-air}
  0.008,                                  !- Zone Heating Design Supply Air Humidity Ratio {kg-H2O/kg-air}
  ,                                       !- Zone Heating Sizing Factor
  ,                                       !- Zone Cooling Sizing Factor
  DesignDay,                              !- Cooling Design Air Flow Method
  ,                                       !- Cooling Design Air Flow Rate {m3/s}
  ,                                       !- Cooling Minimum Air Flow per Zone Floor Area {m3/s-m2}
  ,                                       !- Cooling Minimum Air Flow {m3/s}
  ,                                       !- Cooling Minimum Air Flow Fraction
  DesignDay,                              !- Heating Design Air Flow Method
  ,                                       !- Heating Design Air Flow Rate {m3/s}
  ,                                       !- Heating Maximum Air Flow per Zone Floor Area {m3/s-m2}
  ,                                       !- Heating Maximum Air Flow {m3/s}
  ,                                       !- Heating Maximum Air Flow Fraction
  ,                                       !- Design Zone Air Distribution Effectiveness in Cooling Mode
  ,                                       !- Design Zone Air Distribution Effectiveness in Heating Mode
  No,                                     !- Account for Dedicated Outdoor Air System
  NeutralSupplyAir,                       !- Dedicated Outdoor Air System Control Strategy
  autosize,                               !- Dedicated Outdoor Air Low Setpoint Temperature for Design {C}
  autosize;                               !- Dedicated Outdoor Air High Setpoint Temperature for Design {C}

OS:ZoneHVAC:EquipmentList,
  {60f1d155-4008-4cc0-9f9c-0d97e5148efd}, !- Handle
  Zone HVAC Equipment List 2,             !- Name
  {0f0881bd-1e42-420b-8788-7de44a5b7614}; !- Thermal Zone

OS:Space,
  {081d6473-f30d-45d2-ba8d-d4054737dae3}, !- Handle
  living space|unit 2|story 1,            !- Name
  {4838476a-cf12-4c14-9d5e-668fc10a3613}, !- Space Type Name
  ,                                       !- Default Construction Set Name
  ,                                       !- Default Schedule Set Name
  -0,                                     !- Direction of Relative North {deg}
  0,                                      !- X Origin {m}
  0,                                      !- Y Origin {m}
  0,                                      !- Z Origin {m}
  ,                                       !- Building Story Name
  {0f0881bd-1e42-420b-8788-7de44a5b7614}, !- Thermal Zone Name
  ,                                       !- Part of Total Floor Area
  ,                                       !- Design Specification Outdoor Air Object Name
  {8d4e248c-067e-44fb-a782-0c0aece2f95b}; !- Building Unit Name

OS:Surface,
  {1e93e680-91ad-4bf3-977b-5971da2a29ca}, !- Handle
  Surface 12,                             !- Name
  RoofCeiling,                            !- Surface Type
  ,                                       !- Construction Name
  {081d6473-f30d-45d2-ba8d-d4054737dae3}, !- Space Name
  Surface,                                !- Outside Boundary Condition
  {efd32333-2a80-4442-9d28-fb07f3223309}, !- Outside Boundary Condition Object
  NoSun,                                  !- Sun Exposure
  NoWind,                                 !- Wind Exposure
  ,                                       !- View Factor to Ground
  ,                                       !- Number of Vertices
  12.9315688143396, -12.9315688143396, 2.4384, !- X,Y,Z Vertex 1 {m}
  12.9315688143396, 0, 2.4384,            !- X,Y,Z Vertex 2 {m}
  6.46578440716979, 0, 2.4384,            !- X,Y,Z Vertex 3 {m}
  6.46578440716979, -12.9315688143396, 2.4384; !- X,Y,Z Vertex 4 {m}

OS:Surface,
  {e4d49857-f17a-47ac-ba48-0c6493d54835}, !- Handle
  Surface 13,                             !- Name
  Wall,                                   !- Surface Type
  ,                                       !- Construction Name
  {081d6473-f30d-45d2-ba8d-d4054737dae3}, !- Space Name
  Outdoors,                               !- Outside Boundary Condition
  ,                                       !- Outside Boundary Condition Object
  SunExposed,                             !- Sun Exposure
  WindExposed,                            !- Wind Exposure
  ,                                       !- View Factor to Ground
  ,                                       !- Number of Vertices
  12.9315688143396, 0, 2.4384,            !- X,Y,Z Vertex 1 {m}
  12.9315688143396, 0, 0,                 !- X,Y,Z Vertex 2 {m}
  6.46578440716979, 0, 0,                 !- X,Y,Z Vertex 3 {m}
  6.46578440716979, 0, 2.4384;            !- X,Y,Z Vertex 4 {m}

OS:Surface,
  {83a1c23c-44fd-49c2-8783-7791fab87457}, !- Handle
  Surface 14,                             !- Name
  Wall,                                   !- Surface Type
  ,                                       !- Construction Name
  {081d6473-f30d-45d2-ba8d-d4054737dae3}, !- Space Name
  Outdoors,                               !- Outside Boundary Condition
  ,                                       !- Outside Boundary Condition Object
  SunExposed,                             !- Sun Exposure
  WindExposed,                            !- Wind Exposure
  ,                                       !- View Factor to Ground
  ,                                       !- Number of Vertices
  6.46578440716979, -12.9315688143396, 2.4384, !- X,Y,Z Vertex 1 {m}
  6.46578440716979, -12.9315688143396, 0, !- X,Y,Z Vertex 2 {m}
  12.9315688143396, -12.9315688143396, 0, !- X,Y,Z Vertex 3 {m}
  12.9315688143396, -12.9315688143396, 2.4384; !- X,Y,Z Vertex 4 {m}

OS:Surface,
  {f56c010e-fbed-4c26-af9f-8a1e907c0a7a}, !- Handle
  Surface 15,                             !- Name
  Floor,                                  !- Surface Type
  ,                                       !- Construction Name
  {081d6473-f30d-45d2-ba8d-d4054737dae3}, !- Space Name
  Surface,                                !- Outside Boundary Condition
  {45d5b05f-e4d8-4e5b-a730-e0eec6e785b2}, !- Outside Boundary Condition Object
  NoSun,                                  !- Sun Exposure
  NoWind,                                 !- Wind Exposure
  ,                                       !- View Factor to Ground
  ,                                       !- Number of Vertices
  6.46578440716979, -12.9315688143396, 0, !- X,Y,Z Vertex 1 {m}
  6.46578440716979, 0, 0,                 !- X,Y,Z Vertex 2 {m}
  12.9315688143396, 0, 0,                 !- X,Y,Z Vertex 3 {m}
  12.9315688143396, -12.9315688143396, 0; !- X,Y,Z Vertex 4 {m}

OS:Surface,
  {461bf664-7081-4c04-93b3-957e845a6702}, !- Handle
  Surface 16,                             !- Name
  Wall,                                   !- Surface Type
  ,                                       !- Construction Name
  {081d6473-f30d-45d2-ba8d-d4054737dae3}, !- Space Name
  Surface,                                !- Outside Boundary Condition
  {acbaf5c3-d8bf-491e-870b-c96471dc19fb}, !- Outside Boundary Condition Object
  NoSun,                                  !- Sun Exposure
  NoWind,                                 !- Wind Exposure
  ,                                       !- View Factor to Ground
  ,                                       !- Number of Vertices
  6.46578440716979, 0, 2.4384,            !- X,Y,Z Vertex 1 {m}
  6.46578440716979, 0, 0,                 !- X,Y,Z Vertex 2 {m}
  6.46578440716979, -12.9315688143396, 0, !- X,Y,Z Vertex 3 {m}
  6.46578440716979, -12.9315688143396, 2.4384; !- X,Y,Z Vertex 4 {m}

OS:Surface,
  {fd47ec20-ce57-4215-a5ff-dba08d510433}, !- Handle
  Surface 17,                             !- Name
  Wall,                                   !- Surface Type
  ,                                       !- Construction Name
  {081d6473-f30d-45d2-ba8d-d4054737dae3}, !- Space Name
  Surface,                                !- Outside Boundary Condition
  {2d12a968-360b-4b41-8ea6-dae2c6b9ad8c}, !- Outside Boundary Condition Object
  NoSun,                                  !- Sun Exposure
  NoWind,                                 !- Wind Exposure
  ,                                       !- View Factor to Ground
  ,                                       !- Number of Vertices
  12.9315688143396, -12.9315688143396, 2.4384, !- X,Y,Z Vertex 1 {m}
  12.9315688143396, -12.9315688143396, 0, !- X,Y,Z Vertex 2 {m}
  12.9315688143396, 0, 0,                 !- X,Y,Z Vertex 3 {m}
  12.9315688143396, 0, 2.4384;            !- X,Y,Z Vertex 4 {m}

OS:ThermalZone,
  {669ecf3a-5d4e-47ce-a66d-04ff0d2067d4}, !- Handle
  living zone|unit 3,                     !- Name
  ,                                       !- Multiplier
  ,                                       !- Ceiling Height {m}
  ,                                       !- Volume {m3}
  ,                                       !- Floor Area {m2}
  ,                                       !- Zone Inside Convection Algorithm
  ,                                       !- Zone Outside Convection Algorithm
  ,                                       !- Zone Conditioning Equipment List Name
  {9083f921-94cf-49bd-9a33-a45bbe63c5a8}, !- Zone Air Inlet Port List
  {7675d046-6596-4456-b8aa-cf4863968b72}, !- Zone Air Exhaust Port List
  {b53782fc-7a67-40c6-a833-4320c6ccb179}, !- Zone Air Node Name
  ,                                       !- Zone Return Air Node Name
  ,                                       !- Primary Daylighting Control Name