!- NOTE: Auto-generated from /test/osw_files/SFD_2000sqft_2story_FB_GRG_UA_3Beds_2Baths_Denver_WHTank_ClothesWasher_PropaneClothesDryer.osw

OS:Version,
  {4414b8f9-4c3d-4359-82c0-13e417fa2ce7}, !- Handle
  2.7.0;                                  !- Version Identifier

OS:Building,
  {77474bdf-f1ab-493b-92b3-34b2faf610b0}, !- Handle
  Building 1,                             !- Name
  ,                                       !- Building Sector Type
  0,                                      !- North Axis {deg}
  ,                                       !- Nominal Floor to Floor Height {m}
  ,                                       !- Space Type Name
  ,                                       !- Default Construction Set Name
  ,                                       !- Default Schedule Set Name
  3,                                      !- Standards Number of Stories
  2,                                      !- Standards Number of Above Ground Stories
  ,                                       !- Standards Template
  singlefamilydetached,                   !- Standards Building Type
  1;                                      !- Standards Number of Living Units

OS:Facility,
  {07dcd11f-5c56-4396-a68b-6ae248cab590}; !- Handle

OS:Site,
  {dfa4047d-e08e-4fa7-81c7-220342935199}, !- Handle
  Denver Intl Ap_CO_USA,                  !- Name
  39.83,                                  !- Latitude {deg}
  -104.65,                                !- Longitude {deg}
  -7,                                     !- Time Zone {hr}
  1650,                                   !- Elevation {m}
  ;                                       !- Terrain

OS:SimulationControl,
  {74b64f70-d8d5-490a-a21d-e37edbc762cd}, !- Handle
  ,                                       !- Do Zone Sizing Calculation
  ,                                       !- Do System Sizing Calculation
  ,                                       !- Do Plant Sizing Calculation
  No;                                     !- Run Simulation for Sizing Periods

OS:Sizing:Parameters,
  {13ce4a1a-4d50-4ec9-a86e-ce346f1cca41}, !- Handle
  1.25,                                   !- Heating Sizing Factor
  1.15;                                   !- Cooling Sizing Factor

OS:Timestep,
  {b35c4e4e-e009-4926-9199-cd81cf1efbe0}, !- Handle
  6;                                      !- Number of Timesteps per Hour

OS:ShadowCalculation,
  {5678628b-a35f-40ad-ad5b-7bf07a12acb9}, !- Handle
  20,                                     !- Calculation Frequency
  200;                                    !- Maximum Figures in Shadow Overlap Calculations

OS:HeatBalanceAlgorithm,
  {07c0b6bd-b8bd-4e44-8717-7bff348a5acd}, !- Handle
  MoisturePenetrationDepthConductionTransferFunction, !- Algorithm
  200;                                    !- Surface Temperature Upper Limit {C}

OS:RunPeriod,
  {dd48467f-08e6-4b18-9f50-bf076c69614b}, !- Handle
  Run Period 1,                           !- Name
  1,                                      !- Begin Month
  1,                                      !- Begin Day of Month
  12,                                     !- End Month
  31,                                     !- End Day of Month
  ,                                       !- Use Weather File Holidays and Special Days
  ,                                       !- Use Weather File Daylight Saving Period
  ,                                       !- Apply Weekend Holiday Rule
  ,                                       !- Use Weather File Rain Indicators
  ,                                       !- Use Weather File Snow Indicators
  ;                                       !- Number of Times Runperiod to be Repeated

OS:LifeCycleCost:Parameters,
  {51f6099d-d7d6-4fa2-bb33-1283af24d104}, !- Handle
  ,                                       !- Analysis Type
  ,                                       !- Discounting Convention
  ,                                       !- Inflation Approach
  ,                                       !- Real Discount Rate
  ,                                       !- Nominal Discount Rate
  ,                                       !- Inflation
  ,                                       !- Base Date Month
  ,                                       !- Base Date Year
  ,                                       !- Service Date Month
  ,                                       !- Service Date Year
  ;                                       !- Length of Study Period in Years

OS:SurfaceConvectionAlgorithm:Outside,
  {2d2013a2-eb43-4b6c-9d53-68803b306d32}, !- Handle
  DOE-2;                                  !- Algorithm

OS:SurfaceConvectionAlgorithm:Inside,
  {385af716-c7c8-4923-89f5-427d93043741}, !- Handle
  TARP;                                   !- Algorithm

OS:ZoneCapacitanceMultiplier:ResearchSpecial,
  {a8f12bae-919e-4d56-8364-e01ab6aa9b20}, !- Handle
  ,                                       !- Temperature Capacity Multiplier
  1,                                      !- Humidity Capacity Multiplier
  ;                                       !- Carbon Dioxide Capacity Multiplier

OS:ThermalZone,
  {fa4f3418-807b-48c8-b6e6-2d4e42e6077b}, !- Handle
  living zone,                            !- Name
  ,                                       !- Multiplier
  ,                                       !- Ceiling Height {m}
  ,                                       !- Volume {m3}
  ,                                       !- Floor Area {m2}
  ,                                       !- Zone Inside Convection Algorithm
  ,                                       !- Zone Outside Convection Algorithm
  ,                                       !- Zone Conditioning Equipment List Name
  {7b84cd8b-2b8e-466d-94b2-8edf9af12e28}, !- Zone Air Inlet Port List
  {8e535292-2052-4580-95bb-81faab34d81e}, !- Zone Air Exhaust Port List
  {b46a0d2f-8444-42d6-8535-2c76cb93a062}, !- Zone Air Node Name
  {2477a3e5-4af2-42d3-9b38-c776167751e3}, !- Zone Return Air Port List
  ,                                       !- Primary Daylighting Control Name
  ,                                       !- Fraction of Zone Controlled by Primary Daylighting Control
  ,                                       !- Secondary Daylighting Control Name
  ,                                       !- Fraction of Zone Controlled by Secondary Daylighting Control
  ,                                       !- Illuminance Map Name
  ,                                       !- Group Rendering Name
  ,                                       !- Thermostat Name
  No;                                     !- Use Ideal Air Loads

OS:Node,
  {d2b84be2-6da8-4e17-b25f-ead759fc4acc}, !- Handle
  Node 1,                                 !- Name
  {b46a0d2f-8444-42d6-8535-2c76cb93a062}, !- Inlet Port
  ;                                       !- Outlet Port

OS:Connection,
  {b46a0d2f-8444-42d6-8535-2c76cb93a062}, !- Handle
  {5e5ba17a-be43-4b80-819d-fc347ee10a7f}, !- Name
  {fa4f3418-807b-48c8-b6e6-2d4e42e6077b}, !- Source Object
  11,                                     !- Outlet Port
  {d2b84be2-6da8-4e17-b25f-ead759fc4acc}, !- Target Object
  2;                                      !- Inlet Port

OS:PortList,
  {7b84cd8b-2b8e-466d-94b2-8edf9af12e28}, !- Handle
  {2362b98c-f323-4617-98ab-8e933ddf64d2}, !- Name
  {fa4f3418-807b-48c8-b6e6-2d4e42e6077b}; !- HVAC Component

OS:PortList,
  {8e535292-2052-4580-95bb-81faab34d81e}, !- Handle
  {a1168477-8bef-4de4-bd74-b3a30ca3da6d}, !- Name
  {fa4f3418-807b-48c8-b6e6-2d4e42e6077b}; !- HVAC Component

OS:PortList,
  {2477a3e5-4af2-42d3-9b38-c776167751e3}, !- Handle
  {56ed80a2-620b-4458-823c-6a06ded228d9}, !- Name
  {fa4f3418-807b-48c8-b6e6-2d4e42e6077b}; !- HVAC Component

OS:Sizing:Zone,
  {54735e27-49f0-4ab4-be73-238d912f8188}, !- Handle
  {fa4f3418-807b-48c8-b6e6-2d4e42e6077b}, !- Zone or ZoneList Name
  SupplyAirTemperature,                   !- Zone Cooling Design Supply Air Temperature Input Method
  14,                                     !- Zone Cooling Design Supply Air Temperature {C}
  11.11,                                  !- Zone Cooling Design Supply Air Temperature Difference {deltaC}
  SupplyAirTemperature,                   !- Zone Heating Design Supply Air Temperature Input Method
  40,                                     !- Zone Heating Design Supply Air Temperature {C}
  11.11,                                  !- Zone Heating Design Supply Air Temperature Difference {deltaC}
  0.0085,                                 !- Zone Cooling Design Supply Air Humidity Ratio {kg-H2O/kg-air}
  0.008,                                  !- Zone Heating Design Supply Air Humidity Ratio {kg-H2O/kg-air}
  ,                                       !- Zone Heating Sizing Factor
  ,                                       !- Zone Cooling Sizing Factor
  DesignDay,                              !- Cooling Design Air Flow Method
  ,                                       !- Cooling Design Air Flow Rate {m3/s}
  ,                                       !- Cooling Minimum Air Flow per Zone Floor Area {m3/s-m2}
  ,                                       !- Cooling Minimum Air Flow {m3/s}
  ,                                       !- Cooling Minimum Air Flow Fraction
  DesignDay,                              !- Heating Design Air Flow Method
  ,                                       !- Heating Design Air Flow Rate {m3/s}
  ,                                       !- Heating Maximum Air Flow per Zone Floor Area {m3/s-m2}
  ,                                       !- Heating Maximum Air Flow {m3/s}
  ,                                       !- Heating Maximum Air Flow Fraction
  ,                                       !- Design Zone Air Distribution Effectiveness in Cooling Mode
  ,                                       !- Design Zone Air Distribution Effectiveness in Heating Mode
  No,                                     !- Account for Dedicated Outdoor Air System
  NeutralSupplyAir,                       !- Dedicated Outdoor Air System Control Strategy
  autosize,                               !- Dedicated Outdoor Air Low Setpoint Temperature for Design {C}
  autosize;                               !- Dedicated Outdoor Air High Setpoint Temperature for Design {C}

OS:ZoneHVAC:EquipmentList,
  {fb42333d-fe3d-4c00-866e-6d0c7116c2d8}, !- Handle
  Zone HVAC Equipment List 1,             !- Name
  {fa4f3418-807b-48c8-b6e6-2d4e42e6077b}; !- Thermal Zone

OS:ThermalZone,
  {e1e30f85-9b05-4d77-9212-7ebf75bccc48}, !- Handle
  garage zone,                            !- Name
  ,                                       !- Multiplier
  ,                                       !- Ceiling Height {m}
  ,                                       !- Volume {m3}
  ,                                       !- Floor Area {m2}
  ,                                       !- Zone Inside Convection Algorithm
  ,                                       !- Zone Outside Convection Algorithm
  ,                                       !- Zone Conditioning Equipment List Name
  {212bc713-682e-4537-8a21-231384681592}, !- Zone Air Inlet Port List
  {2a0e403d-791f-4ff5-a7a6-ee575f03b701}, !- Zone Air Exhaust Port List
  {0bdb6391-e210-4e63-a339-eb731ce29c30}, !- Zone Air Node Name
  {290ebdc9-fb95-4ea3-9c66-ad0241283a8b}, !- Zone Return Air Port List
  ,                                       !- Primary Daylighting Control Name
  ,                                       !- Fraction of Zone Controlled by Primary Daylighting Control
  ,                                       !- Secondary Daylighting Control Name
  ,                                       !- Fraction of Zone Controlled by Secondary Daylighting Control
  ,                                       !- Illuminance Map Name
  ,                                       !- Group Rendering Name
  ,                                       !- Thermostat Name
  No;                                     !- Use Ideal Air Loads

OS:Node,
  {8447d507-50d4-49f2-bfa5-6d72a114aa28}, !- Handle
  Node 2,                                 !- Name
  {0bdb6391-e210-4e63-a339-eb731ce29c30}, !- Inlet Port
  ;                                       !- Outlet Port

OS:Connection,
  {0bdb6391-e210-4e63-a339-eb731ce29c30}, !- Handle
  {993363c2-7310-47f1-8a1f-2a22894ae78e}, !- Name
  {e1e30f85-9b05-4d77-9212-7ebf75bccc48}, !- Source Object
  11,                                     !- Outlet Port
  {8447d507-50d4-49f2-bfa5-6d72a114aa28}, !- Target Object
  2;                                      !- Inlet Port

OS:PortList,
  {212bc713-682e-4537-8a21-231384681592}, !- Handle
  {0a69a0ea-b6b2-4170-b331-d2d032250ab9}, !- Name
  {e1e30f85-9b05-4d77-9212-7ebf75bccc48}; !- HVAC Component

OS:PortList,
  {2a0e403d-791f-4ff5-a7a6-ee575f03b701}, !- Handle
  {26106035-132b-4773-bd8e-13e282ac72a9}, !- Name
  {e1e30f85-9b05-4d77-9212-7ebf75bccc48}; !- HVAC Component

OS:PortList,
  {290ebdc9-fb95-4ea3-9c66-ad0241283a8b}, !- Handle
  {1323e29b-02e6-4f2d-86a8-509cd3a73eac}, !- Name
  {e1e30f85-9b05-4d77-9212-7ebf75bccc48}; !- HVAC Component

OS:Sizing:Zone,
  {9767d1bc-ab32-4141-9a20-d52efab8d688}, !- Handle
  {e1e30f85-9b05-4d77-9212-7ebf75bccc48}, !- Zone or ZoneList Name
  SupplyAirTemperature,                   !- Zone Cooling Design Supply Air Temperature Input Method
  14,                                     !- Zone Cooling Design Supply Air Temperature {C}
  11.11,                                  !- Zone Cooling Design Supply Air Temperature Difference {deltaC}
  SupplyAirTemperature,                   !- Zone Heating Design Supply Air Temperature Input Method
  40,                                     !- Zone Heating Design Supply Air Temperature {C}
  11.11,                                  !- Zone Heating Design Supply Air Temperature Difference {deltaC}
  0.0085,                                 !- Zone Cooling Design Supply Air Humidity Ratio {kg-H2O/kg-air}
  0.008,                                  !- Zone Heating Design Supply Air Humidity Ratio {kg-H2O/kg-air}
  ,                                       !- Zone Heating Sizing Factor
  ,                                       !- Zone Cooling Sizing Factor
  DesignDay,                              !- Cooling Design Air Flow Method
  ,                                       !- Cooling Design Air Flow Rate {m3/s}
  ,                                       !- Cooling Minimum Air Flow per Zone Floor Area {m3/s-m2}
  ,                                       !- Cooling Minimum Air Flow {m3/s}
  ,                                       !- Cooling Minimum Air Flow Fraction
  DesignDay,                              !- Heating Design Air Flow Method
  ,                                       !- Heating Design Air Flow Rate {m3/s}
  ,                                       !- Heating Maximum Air Flow per Zone Floor Area {m3/s-m2}
  ,                                       !- Heating Maximum Air Flow {m3/s}
  ,                                       !- Heating Maximum Air Flow Fraction
  ,                                       !- Design Zone Air Distribution Effectiveness in Cooling Mode
  ,                                       !- Design Zone Air Distribution Effectiveness in Heating Mode
  No,                                     !- Account for Dedicated Outdoor Air System
  NeutralSupplyAir,                       !- Dedicated Outdoor Air System Control Strategy
  autosize,                               !- Dedicated Outdoor Air Low Setpoint Temperature for Design {C}
  autosize;                               !- Dedicated Outdoor Air High Setpoint Temperature for Design {C}

OS:ZoneHVAC:EquipmentList,
  {63ed594f-cc95-4d0f-b669-c69f10a9430a}, !- Handle
  Zone HVAC Equipment List 2,             !- Name
  {e1e30f85-9b05-4d77-9212-7ebf75bccc48}; !- Thermal Zone

OS:Space,
  {6d24520c-7b87-4a9a-8a60-48001d9b176b}, !- Handle
  garage space,                           !- Name
  {8d36c134-3136-4f88-ade2-97c2f723c783}, !- Space Type Name
  ,                                       !- Default Construction Set Name
  ,                                       !- Default Schedule Set Name
  -0,                                     !- Direction of Relative North {deg}
  0,                                      !- X Origin {m}
  0,                                      !- Y Origin {m}
  0,                                      !- Z Origin {m}
  ,                                       !- Building Story Name
  {e1e30f85-9b05-4d77-9212-7ebf75bccc48}; !- Thermal Zone Name

OS:Surface,
  {f195ac68-818b-46c0-95ac-239f820c210d}, !- Handle
  Surface 1,                              !- Name
  Floor,                                  !- Surface Type
  ,                                       !- Construction Name
  {6d24520c-7b87-4a9a-8a60-48001d9b176b}, !- Space Name
  Foundation,                             !- Outside Boundary Condition
  ,                                       !- Outside Boundary Condition Object
  NoSun,                                  !- Sun Exposure
  NoWind,                                 !- Wind Exposure
  ,                                       !- View Factor to Ground
  ,                                       !- Number of Vertices
  5.57695129776527, -3.048, 0,            !- X,Y,Z Vertex 1 {m}
  5.57695129776527, 3.048, 0,             !- X,Y,Z Vertex 2 {m}
  11.6729512977653, 3.048, 0,             !- X,Y,Z Vertex 3 {m}
  11.6729512977653, -3.048, 0;            !- X,Y,Z Vertex 4 {m}

OS:Surface,
  {b77314a2-7db0-49ec-a2b4-05e876b377a4}, !- Handle
  Surface 2,                              !- Name
  Wall,                                   !- Surface Type
  ,                                       !- Construction Name
  {6d24520c-7b87-4a9a-8a60-48001d9b176b}, !- Space Name
  Surface,                                !- Outside Boundary Condition
  {44af869c-df16-4474-b8fe-abe6dddc8df3}, !- Outside Boundary Condition Object
  NoSun,                                  !- Sun Exposure
  NoWind,                                 !- Wind Exposure
  ,                                       !- View Factor to Ground
  ,                                       !- Number of Vertices
  5.57695129776527, 3.048, 2.4384,        !- X,Y,Z Vertex 1 {m}
  5.57695129776527, 3.048, 0,             !- X,Y,Z Vertex 2 {m}
  5.57695129776527, 0, 0,                 !- X,Y,Z Vertex 3 {m}
  5.57695129776527, 0, 2.4384;            !- X,Y,Z Vertex 4 {m}

OS:Surface,
  {52162a15-c601-421f-bc12-aed2fe708734}, !- Handle
  Surface 3,                              !- Name
  Wall,                                   !- Surface Type
  ,                                       !- Construction Name
  {6d24520c-7b87-4a9a-8a60-48001d9b176b}, !- Space Name
  Surface,                                !- Outside Boundary Condition
  {fe75207f-da02-47af-8587-b8d5fe90b935}, !- Outside Boundary Condition Object
  NoSun,                                  !- Sun Exposure
  NoWind,                                 !- Wind Exposure
  ,                                       !- View Factor to Ground
  ,                                       !- Number of Vertices
  11.6729512977653, 3.048, 2.4384,        !- X,Y,Z Vertex 1 {m}
  11.6729512977653, 3.048, 0,             !- X,Y,Z Vertex 2 {m}
  5.57695129776527, 3.048, 0,             !- X,Y,Z Vertex 3 {m}
  5.57695129776527, 3.048, 2.4384;        !- X,Y,Z Vertex 4 {m}

OS:Surface,
  {e2713536-ef29-4b8f-beea-2e3a23069864}, !- Handle
  Surface 4,                              !- Name
  Wall,                                   !- Surface Type
  ,                                       !- Construction Name
  {6d24520c-7b87-4a9a-8a60-48001d9b176b}, !- Space Name
  Outdoors,                               !- Outside Boundary Condition
  ,                                       !- Outside Boundary Condition Object
  SunExposed,                             !- Sun Exposure
  WindExposed,                            !- Wind Exposure
  ,                                       !- View Factor to Ground
  ,                                       !- Number of Vertices
  11.6729512977653, -3.048, 2.4384,       !- X,Y,Z Vertex 1 {m}
  11.6729512977653, -3.048, 0,            !- X,Y,Z Vertex 2 {m}
  11.6729512977653, 3.048, 0,             !- X,Y,Z Vertex 3 {m}
  11.6729512977653, 3.048, 2.4384;        !- X,Y,Z Vertex 4 {m}

OS:Surface,
  {74f53305-563b-4a5a-a846-41ef419b31f1}, !- Handle
  Surface 5,                              !- Name
  Wall,                                   !- Surface Type
  ,                                       !- Construction Name
  {6d24520c-7b87-4a9a-8a60-48001d9b176b}, !- Space Name
  Outdoors,                               !- Outside Boundary Condition
  ,                                       !- Outside Boundary Condition Object
  SunExposed,                             !- Sun Exposure
  WindExposed,                            !- Wind Exposure
  ,                                       !- View Factor to Ground
  ,                                       !- Number of Vertices
  5.57695129776527, -3.048, 2.4384,       !- X,Y,Z Vertex 1 {m}
  5.57695129776527, -3.048, 0,            !- X,Y,Z Vertex 2 {m}
  11.6729512977653, -3.048, 0,            !- X,Y,Z Vertex 3 {m}
  11.6729512977653, -3.048, 2.4384;       !- X,Y,Z Vertex 4 {m}

OS:Surface,
  {d5056c30-3a17-413c-8207-a3baf3bec76c}, !- Handle
  Surface 6,                              !- Name
  RoofCeiling,                            !- Surface Type
  ,                                       !- Construction Name
  {6d24520c-7b87-4a9a-8a60-48001d9b176b}, !- Space Name
  Surface,                                !- Outside Boundary Condition
  {33d4a2ac-e367-43bd-805e-d29af2f99f14}, !- Outside Boundary Condition Object
  NoSun,                                  !- Sun Exposure
  NoWind,                                 !- Wind Exposure
  ,                                       !- View Factor to Ground
  ,                                       !- Number of Vertices
  11.6729512977653, -3.048, 2.4384,       !- X,Y,Z Vertex 1 {m}
  11.6729512977653, 3.048, 2.4384,        !- X,Y,Z Vertex 2 {m}
  5.57695129776527, 3.048, 2.4384,        !- X,Y,Z Vertex 3 {m}
  5.57695129776527, -3.048, 2.4384;       !- X,Y,Z Vertex 4 {m}

OS:SpaceType,
  {8d36c134-3136-4f88-ade2-97c2f723c783}, !- Handle
  Space Type 1,                           !- Name
  ,                                       !- Default Construction Set Name
  ,                                       !- Default Schedule Set Name
  ,                                       !- Group Rendering Name
  ,                                       !- Design Specification Outdoor Air Object Name
  ,                                       !- Standards Template
  ,                                       !- Standards Building Type
  garage;                                 !- Standards Space Type

OS:InternalMass:Definition,
  {6e3ebc09-9f0d-494d-974a-532fbe4930b4}, !- Handle
  residential empd dummy garage space,    !- Name
  {dd11baaa-c7d8-421a-a455-bb79ca94024e}, !- Construction Name
  SurfaceArea,                            !- Design Level Calculation Method
  37.1612160000002,                       !- Surface Area {m2}
  ,                                       !- Surface Area per Space Floor Area {dimensionless}
  ;                                       !- Surface Area per Person {m2/person}

OS:InternalMass,
  {079f2121-3607-417a-bcc9-85c976f591f4}, !- Handle
  residential empd dummy garage space,    !- Name
  {6e3ebc09-9f0d-494d-974a-532fbe4930b4}, !- Internal Mass Definition Name
  {6d24520c-7b87-4a9a-8a60-48001d9b176b}, !- Space or SpaceType Name
  1;                                      !- Multiplier

OS:Material,
  {a74f5db3-bcbd-414a-9fe3-2ee62a673cb0}, !- Handle
  residential empd dummy,                 !- Name
  Rough,                                  !- Roughness
  0.001,                                  !- Thickness {m}
  0.1,                                    !- Conductivity {W/m-K}
  100,                                    !- Density {kg/m3}
  100,                                    !- Specific Heat {J/kg-K}
  0.9,                                    !- Thermal Absorptance
  0.5,                                    !- Solar Absorptance
  0.1;                                    !- Visible Absorptance

OS:MaterialProperty:MoisturePenetrationDepth:Settings,
  {a5f5fcad-7a0b-4543-9a6d-904a80abf27e}, !- Handle
  {a74f5db3-bcbd-414a-9fe3-2ee62a673cb0}, !- Material Name
  500,                                    !- Water Vapor Diffusion Resistance Factor {dimensionless}
  0.0069,                                 !- Moisture Equation Coefficient a {dimensionless}
  0.9066,                                 !- Moisture Equation Coefficient b {dimensionless}
  0.0404,                                 !- Moisture Equation Coefficient c {dimensionless}
  22.1121,                                !- Moisture Equation Coefficient d {dimensionless}
  0.1,                                    !- Surface Layer Penetration Depth {m}
  0,                                      !- Deep Layer Penetration Depth {m}
  0,                                      !- Coating Layer Thickness {m}
  0;                                      !- Coating Layer Water Vapor Diffusion Resistance Factor {dimensionless}

OS:Construction,
  {dd11baaa-c7d8-421a-a455-bb79ca94024e}, !- Handle
  residential empd dummy,                 !- Name
  ,                                       !- Surface Rendering Name
  {a74f5db3-bcbd-414a-9fe3-2ee62a673cb0}; !- Layer 1

OS:Space,
  {5d066d62-52ed-4184-aaef-d77b4de06a44}, !- Handle
  living space,                           !- Name
  {d5ff1739-f27d-4a90-87fd-dd04bf40097f}, !- Space Type Name
  ,                                       !- Default Construction Set Name
  ,                                       !- Default Schedule Set Name
  -0,                                     !- Direction of Relative North {deg}
  0,                                      !- X Origin {m}
  0,                                      !- Y Origin {m}
  0,                                      !- Z Origin {m}
  ,                                       !- Building Story Name
  {fa4f3418-807b-48c8-b6e6-2d4e42e6077b}, !- Thermal Zone Name
  ,                                       !- Part of Total Floor Area
  ,                                       !- Design Specification Outdoor Air Object Name
  {c38dc5fb-0344-4e7d-b672-d290b49c9a7e}; !- Building Unit Name

OS:Surface,
  {ecd58449-77e6-4b1a-83d7-82fbb6c3b2e1}, !- Handle
  Surface 7,                              !- Name
  Floor,                                  !- Surface Type
  ,                                       !- Construction Name
  {5d066d62-52ed-4184-aaef-d77b4de06a44}, !- Space Name
  Surface,                                !- Outside Boundary Condition
  {d1986f75-f40d-4d1e-ac65-db5a65715890}, !- Outside Boundary Condition Object
  NoSun,                                  !- Sun Exposure
  NoWind,                                 !- Wind Exposure
  ,                                       !- View Factor to Ground
  ,                                       !- Number of Vertices
  0, 0, 0,                                !- X,Y,Z Vertex 1 {m}
  0, 5.83647564888264, 0,                 !- X,Y,Z Vertex 2 {m}
  11.6729512977653, 5.83647564888264, 0,  !- X,Y,Z Vertex 3 {m}
  11.6729512977653, 3.048, 0,             !- X,Y,Z Vertex 4 {m}
  5.57695129776527, 3.048, 0,             !- X,Y,Z Vertex 5 {m}
  5.57695129776527, 0, 0;                 !- X,Y,Z Vertex 6 {m}

OS:Surface,
  {a24f6dc0-686e-4768-a8be-cfba25d17155}, !- Handle
  Surface 8,                              !- Name
  Wall,                                   !- Surface Type
  ,                                       !- Construction Name
  {5d066d62-52ed-4184-aaef-d77b4de06a44}, !- Space Name
  Outdoors,                               !- Outside Boundary Condition
  ,                                       !- Outside Boundary Condition Object
  SunExposed,                             !- Sun Exposure
  WindExposed,                            !- Wind Exposure
  ,                                       !- View Factor to Ground
  ,                                       !- Number of Vertices
  0, 5.83647564888264, 2.4384,            !- X,Y,Z Vertex 1 {m}
  0, 5.83647564888264, 0,                 !- X,Y,Z Vertex 2 {m}
  0, 0, 0,                                !- X,Y,Z Vertex 3 {m}
  0, 0, 2.4384;                           !- X,Y,Z Vertex 4 {m}

OS:Surface,
  {cf6189e3-581c-48a0-adb4-a16eec4b8c1e}, !- Handle
  Surface 9,                              !- Name
  Wall,                                   !- Surface Type
  ,                                       !- Construction Name
  {5d066d62-52ed-4184-aaef-d77b4de06a44}, !- Space Name
  Outdoors,                               !- Outside Boundary Condition
  ,                                       !- Outside Boundary Condition Object
  SunExposed,                             !- Sun Exposure
  WindExposed,                            !- Wind Exposure
  ,                                       !- View Factor to Ground
  ,                                       !- Number of Vertices
  11.6729512977653, 5.83647564888264, 2.4384, !- X,Y,Z Vertex 1 {m}
  11.6729512977653, 5.83647564888264, 0,  !- X,Y,Z Vertex 2 {m}
  0, 5.83647564888264, 0,                 !- X,Y,Z Vertex 3 {m}
  0, 5.83647564888264, 2.4384;            !- X,Y,Z Vertex 4 {m}

OS:Surface,
  {8c3a4e47-dc66-4112-81bd-0eb3e2f85807}, !- Handle
  Surface 10,                             !- Name
  Wall,                                   !- Surface Type
  ,                                       !- Construction Name
  {5d066d62-52ed-4184-aaef-d77b4de06a44}, !- Space Name
  Outdoors,                               !- Outside Boundary Condition
  ,                                       !- Outside Boundary Condition Object
  SunExposed,                             !- Sun Exposure
  WindExposed,                            !- Wind Exposure
  ,                                       !- View Factor to Ground
  ,                                       !- Number of Vertices