!- NOTE: Auto-generated from /test/osw_files/SFD_2000sqft_2story_FB_GRG_UA_3Beds_2Baths_Denver_WHTank_ClothesWasher_GasClothesDryer.osw

OS:Version,
  {6a1dd051-8d59-45a5-922d-2a920af79fab}, !- Handle
  2.7.0;                                  !- Version Identifier

OS:Building,
  {02c27d7a-983f-4e09-b488-d65779a1d498}, !- Handle
  Building 1,                             !- Name
  ,                                       !- Building Sector Type
  0,                                      !- North Axis {deg}
  ,                                       !- Nominal Floor to Floor Height {m}
  ,                                       !- Space Type Name
  ,                                       !- Default Construction Set Name
  ,                                       !- Default Schedule Set Name
  3,                                      !- Standards Number of Stories
  2,                                      !- Standards Number of Above Ground Stories
  ,                                       !- Standards Template
  singlefamilydetached,                   !- Standards Building Type
  1;                                      !- Standards Number of Living Units

OS:Facility,
  {f3307d56-44f4-407b-b9a4-19fff4a60829}; !- Handle

OS:Site,
  {64f3aff4-d3ec-4187-b86e-e8d8151d10f2}, !- Handle
  Denver Intl Ap_CO_USA,                  !- Name
  39.83,                                  !- Latitude {deg}
  -104.65,                                !- Longitude {deg}
  -7,                                     !- Time Zone {hr}
  1650,                                   !- Elevation {m}
  ;                                       !- Terrain

OS:SimulationControl,
  {a51eedaf-4e90-4569-bcdc-ebae30ee7e86}, !- Handle
  ,                                       !- Do Zone Sizing Calculation
  ,                                       !- Do System Sizing Calculation
  ,                                       !- Do Plant Sizing Calculation
  No;                                     !- Run Simulation for Sizing Periods

OS:Sizing:Parameters,
  {f09d56e3-4240-4bcf-bb70-e556c71fbf23}, !- Handle
  1.25,                                   !- Heating Sizing Factor
  1.15;                                   !- Cooling Sizing Factor

OS:Timestep,
  {a56e57dd-d1f6-4ef9-8a03-85f64449fdcf}, !- Handle
  6;                                      !- Number of Timesteps per Hour

OS:ShadowCalculation,
  {09d41086-a31d-4f65-b7f1-eef33fdd3e3e}, !- Handle
  20,                                     !- Calculation Frequency
  200;                                    !- Maximum Figures in Shadow Overlap Calculations

OS:HeatBalanceAlgorithm,
  {d59d22ea-3be3-42fe-b0ae-fe933c07f951}, !- Handle
  ConductionTransferFunction,             !- Algorithm
  200;                                    !- Surface Temperature Upper Limit {C}

OS:RunPeriod,
  {d1dfeb22-610b-4751-a62c-f0de5507acdd}, !- Handle
  Run Period 1,                           !- Name
  1,                                      !- Begin Month
  1,                                      !- Begin Day of Month
  12,                                     !- End Month
  31,                                     !- End Day of Month
  ,                                       !- Use Weather File Holidays and Special Days
  ,                                       !- Use Weather File Daylight Saving Period
  ,                                       !- Apply Weekend Holiday Rule
  ,                                       !- Use Weather File Rain Indicators
  ,                                       !- Use Weather File Snow Indicators
  ;                                       !- Number of Times Runperiod to be Repeated

OS:LifeCycleCost:Parameters,
  {153eb5b0-d39e-4e4f-8fa4-6af9437407e8}, !- Handle
  ,                                       !- Analysis Type
  ,                                       !- Discounting Convention
  ,                                       !- Inflation Approach
  ,                                       !- Real Discount Rate
  ,                                       !- Nominal Discount Rate
  ,                                       !- Inflation
  ,                                       !- Base Date Month
  ,                                       !- Base Date Year
  ,                                       !- Service Date Month
  ,                                       !- Service Date Year
  ;                                       !- Length of Study Period in Years

OS:SurfaceConvectionAlgorithm:Outside,
  {ea487155-7f61-4fab-9f62-658f16087ad2}, !- Handle
  DOE-2;                                  !- Algorithm

OS:SurfaceConvectionAlgorithm:Inside,
  {31741610-0870-4934-9600-3971d78e65fe}, !- Handle
  TARP;                                   !- Algorithm

OS:ZoneCapacitanceMultiplier:ResearchSpecial,
  {54127ae5-8a7f-492b-81c3-be3ef36e986d}, !- Handle
  ,                                       !- Temperature Capacity Multiplier
  15,                                     !- Humidity Capacity Multiplier
  ;                                       !- Carbon Dioxide Capacity Multiplier

OS:ThermalZone,
  {f4ea1bd8-8bf6-4196-bc28-b8ca3e2e4071}, !- Handle
  living zone,                            !- Name
  ,                                       !- Multiplier
  ,                                       !- Ceiling Height {m}
  ,                                       !- Volume {m3}
  ,                                       !- Floor Area {m2}
  ,                                       !- Zone Inside Convection Algorithm
  ,                                       !- Zone Outside Convection Algorithm
  ,                                       !- Zone Conditioning Equipment List Name
  {f55b65a8-5715-4b6c-9aaf-08f507409a4a}, !- Zone Air Inlet Port List
  {19351abb-372e-429e-959b-545f78a91def}, !- Zone Air Exhaust Port List
  {89e01075-fc0e-409c-a963-8c9b06b33ec4}, !- Zone Air Node Name
  {2e27db4b-c50b-4aa1-a4c1-162398de4e92}, !- Zone Return Air Port List
  ,                                       !- Primary Daylighting Control Name
  ,                                       !- Fraction of Zone Controlled by Primary Daylighting Control
  ,                                       !- Secondary Daylighting Control Name
  ,                                       !- Fraction of Zone Controlled by Secondary Daylighting Control
  ,                                       !- Illuminance Map Name
  ,                                       !- Group Rendering Name
  ,                                       !- Thermostat Name
  No;                                     !- Use Ideal Air Loads

OS:Node,
  {82a3360a-c96c-4755-8a7f-16e3632ecfba}, !- Handle
  Node 1,                                 !- Name
  {89e01075-fc0e-409c-a963-8c9b06b33ec4}, !- Inlet Port
  ;                                       !- Outlet Port

OS:Connection,
  {89e01075-fc0e-409c-a963-8c9b06b33ec4}, !- Handle
  {7f3180ea-cbcd-4704-8b0f-d8a8c791f531}, !- Name
  {f4ea1bd8-8bf6-4196-bc28-b8ca3e2e4071}, !- Source Object
  11,                                     !- Outlet Port
  {82a3360a-c96c-4755-8a7f-16e3632ecfba}, !- Target Object
  2;                                      !- Inlet Port

OS:PortList,
  {f55b65a8-5715-4b6c-9aaf-08f507409a4a}, !- Handle
  {f37adcae-ab6c-4e6e-8ab7-e769714a55ea}, !- Name
  {f4ea1bd8-8bf6-4196-bc28-b8ca3e2e4071}; !- HVAC Component

OS:PortList,
  {19351abb-372e-429e-959b-545f78a91def}, !- Handle
  {3e4c614b-aed8-47c6-9c86-7bc36f781fad}, !- Name
  {f4ea1bd8-8bf6-4196-bc28-b8ca3e2e4071}; !- HVAC Component

OS:PortList,
  {2e27db4b-c50b-4aa1-a4c1-162398de4e92}, !- Handle
  {dc109f05-a2ac-44f9-a152-f8f05b66bd7c}, !- Name
  {f4ea1bd8-8bf6-4196-bc28-b8ca3e2e4071}; !- HVAC Component

OS:Sizing:Zone,
  {b39182e1-d4e7-4a86-8459-b4dfe3a7f807}, !- Handle
  {f4ea1bd8-8bf6-4196-bc28-b8ca3e2e4071}, !- Zone or ZoneList Name
  SupplyAirTemperature,                   !- Zone Cooling Design Supply Air Temperature Input Method
  14,                                     !- Zone Cooling Design Supply Air Temperature {C}
  11.11,                                  !- Zone Cooling Design Supply Air Temperature Difference {deltaC}
  SupplyAirTemperature,                   !- Zone Heating Design Supply Air Temperature Input Method
  40,                                     !- Zone Heating Design Supply Air Temperature {C}
  11.11,                                  !- Zone Heating Design Supply Air Temperature Difference {deltaC}
  0.0085,                                 !- Zone Cooling Design Supply Air Humidity Ratio {kg-H2O/kg-air}
  0.008,                                  !- Zone Heating Design Supply Air Humidity Ratio {kg-H2O/kg-air}
  ,                                       !- Zone Heating Sizing Factor
  ,                                       !- Zone Cooling Sizing Factor
  DesignDay,                              !- Cooling Design Air Flow Method
  ,                                       !- Cooling Design Air Flow Rate {m3/s}
  ,                                       !- Cooling Minimum Air Flow per Zone Floor Area {m3/s-m2}
  ,                                       !- Cooling Minimum Air Flow {m3/s}
  ,                                       !- Cooling Minimum Air Flow Fraction
  DesignDay,                              !- Heating Design Air Flow Method
  ,                                       !- Heating Design Air Flow Rate {m3/s}
  ,                                       !- Heating Maximum Air Flow per Zone Floor Area {m3/s-m2}
  ,                                       !- Heating Maximum Air Flow {m3/s}
  ,                                       !- Heating Maximum Air Flow Fraction
  ,                                       !- Design Zone Air Distribution Effectiveness in Cooling Mode
  ,                                       !- Design Zone Air Distribution Effectiveness in Heating Mode
  No,                                     !- Account for Dedicated Outdoor Air System
  NeutralSupplyAir,                       !- Dedicated Outdoor Air System Control Strategy
  autosize,                               !- Dedicated Outdoor Air Low Setpoint Temperature for Design {C}
  autosize;                               !- Dedicated Outdoor Air High Setpoint Temperature for Design {C}

OS:ZoneHVAC:EquipmentList,
  {d31f3b95-8814-4db7-9d29-ad73ec75d0c1}, !- Handle
  Zone HVAC Equipment List 1,             !- Name
  {f4ea1bd8-8bf6-4196-bc28-b8ca3e2e4071}; !- Thermal Zone

OS:ThermalZone,
  {8c52b7c1-8d08-43a0-aec8-f1eaab2708d3}, !- Handle
  garage zone,                            !- Name
  ,                                       !- Multiplier
  ,                                       !- Ceiling Height {m}
  ,                                       !- Volume {m3}
  ,                                       !- Floor Area {m2}
  ,                                       !- Zone Inside Convection Algorithm
  ,                                       !- Zone Outside Convection Algorithm
  ,                                       !- Zone Conditioning Equipment List Name
  {e86fee13-4695-4fed-a8be-4f2b632462a7}, !- Zone Air Inlet Port List
  {12073483-6c71-449a-a925-a54f6a8ff2af}, !- Zone Air Exhaust Port List
  {4f5ecf48-e89d-4fa1-a651-20b599b57fbc}, !- Zone Air Node Name
  {289008c3-8732-4187-85e4-740e63860e17}, !- Zone Return Air Port List
  ,                                       !- Primary Daylighting Control Name
  ,                                       !- Fraction of Zone Controlled by Primary Daylighting Control
  ,                                       !- Secondary Daylighting Control Name
  ,                                       !- Fraction of Zone Controlled by Secondary Daylighting Control
  ,                                       !- Illuminance Map Name
  ,                                       !- Group Rendering Name
  ,                                       !- Thermostat Name
  No;                                     !- Use Ideal Air Loads

OS:Node,
  {eb6d9f01-9189-4c4a-81b1-a3dcd6240d9e}, !- Handle
  Node 2,                                 !- Name
  {4f5ecf48-e89d-4fa1-a651-20b599b57fbc}, !- Inlet Port
  ;                                       !- Outlet Port

OS:Connection,
  {4f5ecf48-e89d-4fa1-a651-20b599b57fbc}, !- Handle
  {62e8f695-ef2d-4c25-9e50-d35c9263cd3c}, !- Name
  {8c52b7c1-8d08-43a0-aec8-f1eaab2708d3}, !- Source Object
  11,                                     !- Outlet Port
  {eb6d9f01-9189-4c4a-81b1-a3dcd6240d9e}, !- Target Object
  2;                                      !- Inlet Port

OS:PortList,
  {e86fee13-4695-4fed-a8be-4f2b632462a7}, !- Handle
  {87ef3313-9f4e-4b00-90fc-96533523d0f4}, !- Name
  {8c52b7c1-8d08-43a0-aec8-f1eaab2708d3}; !- HVAC Component

OS:PortList,
  {12073483-6c71-449a-a925-a54f6a8ff2af}, !- Handle
  {87424694-4ed7-450f-ae6c-a0c539aab972}, !- Name
  {8c52b7c1-8d08-43a0-aec8-f1eaab2708d3}; !- HVAC Component

OS:PortList,
  {289008c3-8732-4187-85e4-740e63860e17}, !- Handle
  {54140a1a-643e-46ca-a660-c3620716c0cb}, !- Name
  {8c52b7c1-8d08-43a0-aec8-f1eaab2708d3}; !- HVAC Component

OS:Sizing:Zone,
  {a56018b5-95cf-4ca2-aa1f-242ef7332f41}, !- Handle
  {8c52b7c1-8d08-43a0-aec8-f1eaab2708d3}, !- Zone or ZoneList Name
  SupplyAirTemperature,                   !- Zone Cooling Design Supply Air Temperature Input Method
  14,                                     !- Zone Cooling Design Supply Air Temperature {C}
  11.11,                                  !- Zone Cooling Design Supply Air Temperature Difference {deltaC}
  SupplyAirTemperature,                   !- Zone Heating Design Supply Air Temperature Input Method
  40,                                     !- Zone Heating Design Supply Air Temperature {C}
  11.11,                                  !- Zone Heating Design Supply Air Temperature Difference {deltaC}
  0.0085,                                 !- Zone Cooling Design Supply Air Humidity Ratio {kg-H2O/kg-air}
  0.008,                                  !- Zone Heating Design Supply Air Humidity Ratio {kg-H2O/kg-air}
  ,                                       !- Zone Heating Sizing Factor
  ,                                       !- Zone Cooling Sizing Factor
  DesignDay,                              !- Cooling Design Air Flow Method
  ,                                       !- Cooling Design Air Flow Rate {m3/s}
  ,                                       !- Cooling Minimum Air Flow per Zone Floor Area {m3/s-m2}
  ,                                       !- Cooling Minimum Air Flow {m3/s}
  ,                                       !- Cooling Minimum Air Flow Fraction
  DesignDay,                              !- Heating Design Air Flow Method
  ,                                       !- Heating Design Air Flow Rate {m3/s}
  ,                                       !- Heating Maximum Air Flow per Zone Floor Area {m3/s-m2}
  ,                                       !- Heating Maximum Air Flow {m3/s}
  ,                                       !- Heating Maximum Air Flow Fraction
  ,                                       !- Design Zone Air Distribution Effectiveness in Cooling Mode
  ,                                       !- Design Zone Air Distribution Effectiveness in Heating Mode
  No,                                     !- Account for Dedicated Outdoor Air System
  NeutralSupplyAir,                       !- Dedicated Outdoor Air System Control Strategy
  autosize,                               !- Dedicated Outdoor Air Low Setpoint Temperature for Design {C}
  autosize;                               !- Dedicated Outdoor Air High Setpoint Temperature for Design {C}

OS:ZoneHVAC:EquipmentList,
  {f476c396-8a8f-4c3d-995f-24c5cc52a0d1}, !- Handle
  Zone HVAC Equipment List 2,             !- Name
  {8c52b7c1-8d08-43a0-aec8-f1eaab2708d3}; !- Thermal Zone

OS:Space,
  {15846cfb-014b-4829-99d7-5cecfeaa5cb7}, !- Handle
  garage space,                           !- Name
  {e952c3d9-afdc-4570-800f-c2babfc98ccc}, !- Space Type Name
  ,                                       !- Default Construction Set Name
  ,                                       !- Default Schedule Set Name
  -0,                                     !- Direction of Relative North {deg}
  0,                                      !- X Origin {m}
  0,                                      !- Y Origin {m}
  0,                                      !- Z Origin {m}
  ,                                       !- Building Story Name
  {8c52b7c1-8d08-43a0-aec8-f1eaab2708d3}; !- Thermal Zone Name

OS:Surface,
  {cc6d2c82-81f0-4358-8ce2-aaa127be1131}, !- Handle
  Surface 1,                              !- Name
  Floor,                                  !- Surface Type
  ,                                       !- Construction Name
  {15846cfb-014b-4829-99d7-5cecfeaa5cb7}, !- Space Name
  Foundation,                             !- Outside Boundary Condition
  ,                                       !- Outside Boundary Condition Object
  NoSun,                                  !- Sun Exposure
  NoWind,                                 !- Wind Exposure
  ,                                       !- View Factor to Ground
  ,                                       !- Number of Vertices
  5.57695129776527, -3.048, 0,            !- X,Y,Z Vertex 1 {m}
  5.57695129776527, 3.048, 0,             !- X,Y,Z Vertex 2 {m}
  11.6729512977653, 3.048, 0,             !- X,Y,Z Vertex 3 {m}
  11.6729512977653, -3.048, 0;            !- X,Y,Z Vertex 4 {m}

OS:Surface,
  {bd97eabd-9bd5-46ce-b253-558a430a9cb5}, !- Handle
  Surface 2,                              !- Name
  Wall,                                   !- Surface Type
  ,                                       !- Construction Name
  {15846cfb-014b-4829-99d7-5cecfeaa5cb7}, !- Space Name
  Surface,                                !- Outside Boundary Condition
  {934acae8-23ab-48f0-8683-c7985c54cbff}, !- Outside Boundary Condition Object
  NoSun,                                  !- Sun Exposure
  NoWind,                                 !- Wind Exposure
  ,                                       !- View Factor to Ground
  ,                                       !- Number of Vertices
  5.57695129776527, 3.048, 2.4384,        !- X,Y,Z Vertex 1 {m}
  5.57695129776527, 3.048, 0,             !- X,Y,Z Vertex 2 {m}
  5.57695129776527, 0, 0,                 !- X,Y,Z Vertex 3 {m}
  5.57695129776527, 0, 2.4384;            !- X,Y,Z Vertex 4 {m}

OS:Surface,
  {30373ccf-0ee0-4b91-b7c7-2c9a110e0c31}, !- Handle
  Surface 3,                              !- Name
  Wall,                                   !- Surface Type
  ,                                       !- Construction Name
  {15846cfb-014b-4829-99d7-5cecfeaa5cb7}, !- Space Name
  Surface,                                !- Outside Boundary Condition
  {c150ea63-461c-42c8-b0b0-61ad70c02308}, !- Outside Boundary Condition Object
  NoSun,                                  !- Sun Exposure
  NoWind,                                 !- Wind Exposure
  ,                                       !- View Factor to Ground
  ,                                       !- Number of Vertices
  11.6729512977653, 3.048, 2.4384,        !- X,Y,Z Vertex 1 {m}
  11.6729512977653, 3.048, 0,             !- X,Y,Z Vertex 2 {m}
  5.57695129776527, 3.048, 0,             !- X,Y,Z Vertex 3 {m}
  5.57695129776527, 3.048, 2.4384;        !- X,Y,Z Vertex 4 {m}

OS:Surface,
  {d53767c0-ea53-4c3c-aca9-d3b6d8be28d1}, !- Handle
  Surface 4,                              !- Name
  Wall,                                   !- Surface Type
  ,                                       !- Construction Name
  {15846cfb-014b-4829-99d7-5cecfeaa5cb7}, !- Space Name
  Outdoors,                               !- Outside Boundary Condition
  ,                                       !- Outside Boundary Condition Object
  SunExposed,                             !- Sun Exposure
  WindExposed,                            !- Wind Exposure
  ,                                       !- View Factor to Ground
  ,                                       !- Number of Vertices
  11.6729512977653, -3.048, 2.4384,       !- X,Y,Z Vertex 1 {m}
  11.6729512977653, -3.048, 0,            !- X,Y,Z Vertex 2 {m}
  11.6729512977653, 3.048, 0,             !- X,Y,Z Vertex 3 {m}
  11.6729512977653, 3.048, 2.4384;        !- X,Y,Z Vertex 4 {m}

OS:Surface,
  {532d2e4c-2832-4982-b28b-1ab8782cb612}, !- Handle
  Surface 5,                              !- Name
  Wall,                                   !- Surface Type
  ,                                       !- Construction Name
  {15846cfb-014b-4829-99d7-5cecfeaa5cb7}, !- Space Name
  Outdoors,                               !- Outside Boundary Condition
  ,                                       !- Outside Boundary Condition Object
  SunExposed,                             !- Sun Exposure
  WindExposed,                            !- Wind Exposure
  ,                                       !- View Factor to Ground
  ,                                       !- Number of Vertices
  5.57695129776527, -3.048, 2.4384,       !- X,Y,Z Vertex 1 {m}
  5.57695129776527, -3.048, 0,            !- X,Y,Z Vertex 2 {m}
  11.6729512977653, -3.048, 0,            !- X,Y,Z Vertex 3 {m}
  11.6729512977653, -3.048, 2.4384;       !- X,Y,Z Vertex 4 {m}

OS:Surface,
  {a3664af7-4c9f-4541-8c12-478a82369bdc}, !- Handle
  Surface 6,                              !- Name
  RoofCeiling,                            !- Surface Type
  ,                                       !- Construction Name
  {15846cfb-014b-4829-99d7-5cecfeaa5cb7}, !- Space Name
  Surface,                                !- Outside Boundary Condition
  {19210e14-33ca-4962-8dd6-3ee471d14783}, !- Outside Boundary Condition Object
  NoSun,                                  !- Sun Exposure
  NoWind,                                 !- Wind Exposure
  ,                                       !- View Factor to Ground
  ,                                       !- Number of Vertices
  11.6729512977653, -3.048, 2.4384,       !- X,Y,Z Vertex 1 {m}
  11.6729512977653, 3.048, 2.4384,        !- X,Y,Z Vertex 2 {m}
  5.57695129776527, 3.048, 2.4384,        !- X,Y,Z Vertex 3 {m}
  5.57695129776527, -3.048, 2.4384;       !- X,Y,Z Vertex 4 {m}

OS:SpaceType,
  {e952c3d9-afdc-4570-800f-c2babfc98ccc}, !- Handle
  Space Type 1,                           !- Name
  ,                                       !- Default Construction Set Name
  ,                                       !- Default Schedule Set Name
  ,                                       !- Group Rendering Name
  ,                                       !- Design Specification Outdoor Air Object Name
  ,                                       !- Standards Template
  ,                                       !- Standards Building Type
  garage;                                 !- Standards Space Type

OS:Space,
  {8a4d903a-9c20-41c0-9800-bb7644050e83}, !- Handle
  living space,                           !- Name
  {6d63f253-6c47-4de3-be22-ce58ea9f4435}, !- Space Type Name
  ,                                       !- Default Construction Set Name
  ,                                       !- Default Schedule Set Name
  -0,                                     !- Direction of Relative North {deg}
  0,                                      !- X Origin {m}
  0,                                      !- Y Origin {m}
  0,                                      !- Z Origin {m}
  ,                                       !- Building Story Name
  {f4ea1bd8-8bf6-4196-bc28-b8ca3e2e4071}, !- Thermal Zone Name
  ,                                       !- Part of Total Floor Area
  ,                                       !- Design Specification Outdoor Air Object Name
  {dd32a7ba-0377-422d-8aba-3096c2460985}; !- Building Unit Name

OS:Surface,
  {3ce29737-04a1-4851-a515-8380978e8735}, !- Handle
  Surface 7,                              !- Name
  Floor,                                  !- Surface Type
  ,                                       !- Construction Name
  {8a4d903a-9c20-41c0-9800-bb7644050e83}, !- Space Name
  Surface,                                !- Outside Boundary Condition
  {1b17bfe3-807f-4c98-94ad-fb6bdb5a3802}, !- Outside Boundary Condition Object
  NoSun,                                  !- Sun Exposure
  NoWind,                                 !- Wind Exposure
  ,                                       !- View Factor to Ground
  ,                                       !- Number of Vertices
  0, 0, 0,                                !- X,Y,Z Vertex 1 {m}
  0, 5.83647564888264, 0,                 !- X,Y,Z Vertex 2 {m}
  11.6729512977653, 5.83647564888264, 0,  !- X,Y,Z Vertex 3 {m}
  11.6729512977653, 3.048, 0,             !- X,Y,Z Vertex 4 {m}
  5.57695129776527, 3.048, 0,             !- X,Y,Z Vertex 5 {m}
  5.57695129776527, 0, 0;                 !- X,Y,Z Vertex 6 {m}

OS:Surface,
  {ee5bc32d-4e2c-4dfb-9ea8-d23c2c433a06}, !- Handle
  Surface 8,                              !- Name
  Wall,                                   !- Surface Type
  ,                                       !- Construction Name
  {8a4d903a-9c20-41c0-9800-bb7644050e83}, !- Space Name
  Outdoors,                               !- Outside Boundary Condition
  ,                                       !- Outside Boundary Condition Object
  SunExposed,                             !- Sun Exposure
  WindExposed,                            !- Wind Exposure
  ,                                       !- View Factor to Ground
  ,                                       !- Number of Vertices
  0, 5.83647564888264, 2.4384,            !- X,Y,Z Vertex 1 {m}
  0, 5.83647564888264, 0,                 !- X,Y,Z Vertex 2 {m}
  0, 0, 0,                                !- X,Y,Z Vertex 3 {m}
  0, 0, 2.4384;                           !- X,Y,Z Vertex 4 {m}

OS:Surface,
  {b71709be-dd36-4c65-bcad-e41ed8613999}, !- Handle
  Surface 9,                              !- Name
  Wall,                                   !- Surface Type
  ,                                       !- Construction Name
  {8a4d903a-9c20-41c0-9800-bb7644050e83}, !- Space Name
  Outdoors,                               !- Outside Boundary Condition
  ,                                       !- Outside Boundary Condition Object
  SunExposed,                             !- Sun Exposure
  WindExposed,                            !- Wind Exposure
  ,                                       !- View Factor to Ground
  ,                                       !- Number of Vertices
  11.6729512977653, 5.83647564888264, 2.4384, !- X,Y,Z Vertex 1 {m}
  11.6729512977653, 5.83647564888264, 0,  !- X,Y,Z Vertex 2 {m}
  0, 5.83647564888264, 0,                 !- X,Y,Z Vertex 3 {m}
  0, 5.83647564888264, 2.4384;            !- X,Y,Z Vertex 4 {m}

OS:Surface,
  {541749f8-ca69-4ae7-92f4-89544aab26ca}, !- Handle
  Surface 10,                             !- Name
  Wall,                                   !- Surface Type
  ,                                       !- Construction Name
  {8a4d903a-9c20-41c0-9800-bb7644050e83}, !- Space Name
  Outdoors,                               !- Outside Boundary Condition
  ,                                       !- Outside Boundary Condition Object
  SunExposed,                             !- Sun Exposure
  WindExposed,                            !- Wind Exposure
  ,                                       !- View Factor to Ground
  ,                                       !- Number of Vertices
  11.6729512977653, 3.048, 2.4384,        !- X,Y,Z Vertex 1 {m}
  11.6729512977653, 3.048, 0,             !- X,Y,Z Vertex 2 {m}
  11.6729512977653, 5.83647564888264, 0,  !- X,Y,Z Vertex 3 {m}
  11.6729512977653, 5.83647564888264, 2.4384; !- X,Y,Z Vertex 4 {m}

OS:Surface,
  {c150ea63-461c-42c8-b0b0-61ad70c02308}, !- Handle
  Surface 11,                             !- Name
  Wall,                                   !- Surface Type
  ,                                       !- Construction Name
  {8a4d903a-9c20-41c0-9800-bb7644050e83}, !- Space Name
  Surface,                                !- Outside Boundary Condition
  {30373ccf-0ee0-4b91-b7c7-2c9a110e0c31}, !- Outside Boundary Condition Object
  NoSun,                                  !- Sun Exposure
  NoWind,                                 !- Wind Exposure
  ,                                       !- View Factor to Ground
  ,                                       !- Number of Vertices
  5.57695129776527, 3.048, 2.4384,        !- X,Y,Z Vertex 1 {m}
  5.57695129776527, 3.048, 0,             !- X,Y,Z Vertex 2 {m}
  11.6729512977653, 3.048, 0,             !- X,Y,Z Vertex 3 {m}
  11.6729512977653, 3.048, 2.4384;        !- X,Y,Z Vertex 4 {m}

OS:Surface,
  {934acae8-23ab-48f0-8683-c7985c54cbff}, !- Handle
  Surface 12,                             !- Name
  Wall,                                   !- Surface Type
  ,                                       !- Construction Name
  {8a4d903a-9c20-41c0-9800-bb7644050e83}, !- Space Name
  Surface,                                !- Outside Boundary Condition
  {bd97eabd-9bd5-46ce-b253-558a430a9cb5}, !- Outside Boundary Condition Object
  NoSun,                                  !- Sun Exposure
  NoWind,                                 !- Wind Exposure
  ,                                       !- View Factor to Ground
  ,                                       !- Number of Vertices
  5.57695129776527, 0, 2.4384,            !- X,Y,Z Vertex 1 {m}
  5.57695129776527, 0, 0,                 !- X,Y,Z Vertex 2 {m}
  5.57695129776527, 3.048, 0,             !- X,Y,Z Vertex 3 {m}
  5.57695129776527, 3.048, 2.4384;        !- X,Y,Z Vertex 4 {m}

OS:Surface,
  {605c69a5-2bfc-43a0-a137-48f987918e94}, !- Handle
  Surface 13,                             !- Name
  Wall,                                   !- Surface Type
  ,                                       !- Construction Name
  {8a4d903a-9c20-41c0-9800-bb7644050e83}, !- Space Name
  Outdoors,                               !- Outside Boundary Condition
  ,                                       !- Outside Boundary Condition Object
  SunExposed,                             !- Sun Exposure
  WindExposed,                            !- Wind Exposure