!- NOTE: Auto-generated from /test/osw_files/MF_8units_1story_CS_3Beds_2Baths_Denver.osw

OS:Version,
  {2f477d51-8c08-41a5-b1da-bd86aa5cf8c7}, !- Handle
  2.6.1;                                  !- Version Identifier

OS:Building,
  {aecc4925-9c1b-45bb-8bb4-8b8393016483}, !- Handle
  Building 1,                             !- Name
  ,                                       !- Building Sector Type
  0,                                      !- North Axis {deg}
  ,                                       !- Nominal Floor to Floor Height {m}
  ,                                       !- Space Type Name
  ,                                       !- Default Construction Set Name
  ,                                       !- Default Schedule Set Name
  1,                                      !- Standards Number of Stories
  1,                                      !- Standards Number of Above Ground Stories
  multifamily,                            !- Standards Building Type
  8;                                      !- Standards Number of Living Units

OS:Facility,
  {05922bc2-0b58-4ce7-9d30-60842692468b}; !- Handle

OS:Site,
  {c3350c4f-19ab-4ecb-a167-dacd26543450}, !- Handle
  Denver Intl Ap_CO_USA,                  !- Name
  39.83,                                  !- Latitude {deg}
  -104.65,                                !- Longitude {deg}
  -7,                                     !- Time Zone {hr}
  1650,                                   !- Elevation {m}
  ;                                       !- Terrain

OS:SimulationControl,
  {37f14455-e552-4d17-b6b9-deba8cb162e6}, !- Handle
  ,                                       !- Do Zone Sizing Calculation
  ,                                       !- Do System Sizing Calculation
  ,                                       !- Do Plant Sizing Calculation
  No;                                     !- Run Simulation for Sizing Periods

OS:Sizing:Parameters,
  {8ea1908b-d05f-43ca-969a-23a684fd91e2}, !- Handle
  1.25,                                   !- Heating Sizing Factor
  1.15;                                   !- Cooling Sizing Factor

OS:Timestep,
  {894a0cc0-61c2-4bbe-bb54-aa0ce49bca2f}, !- Handle
  6;                                      !- Number of Timesteps per Hour

OS:ShadowCalculation,
  {0e2d5cc9-99b6-4cf7-b17b-1fddc4ecce55}, !- Handle
  20,                                     !- Calculation Frequency
  200;                                    !- Maximum Figures in Shadow Overlap Calculations

OS:HeatBalanceAlgorithm,
  {2729ed68-49b6-4fe6-83bb-2d7398b93f26}, !- Handle
  ConductionTransferFunction,             !- Algorithm
  200;                                    !- Surface Temperature Upper Limit {C}

OS:RunPeriod,
  {3c9d623a-a62d-4fae-b0c5-63dc5d278e4b}, !- Handle
  Run Period 1,                           !- Name
  1,                                      !- Begin Month
  1,                                      !- Begin Day of Month
  12,                                     !- End Month
  31,                                     !- End Day of Month
  ,                                       !- Use Weather File Holidays and Special Days
  ,                                       !- Use Weather File Daylight Saving Period
  ,                                       !- Apply Weekend Holiday Rule
  ,                                       !- Use Weather File Rain Indicators
  ,                                       !- Use Weather File Snow Indicators
  ;                                       !- Number of Times Runperiod to be Repeated

OS:LifeCycleCost:Parameters,
  {1691a2ca-3af9-44d1-b61e-c3cd57577c7c}, !- Handle
  ,                                       !- Analysis Type
  ,                                       !- Discounting Convention
  ,                                       !- Inflation Approach
  ,                                       !- Real Discount Rate
  ,                                       !- Nominal Discount Rate
  ,                                       !- Inflation
  ,                                       !- Base Date Month
  ,                                       !- Base Date Year
  ,                                       !- Service Date Month
  ,                                       !- Service Date Year
  ;                                       !- Length of Study Period in Years

OS:ThermalZone,
  {4979e67e-9a44-45ef-b186-13b77ff81f85}, !- Handle
  living zone,                            !- Name
  ,                                       !- Multiplier
  ,                                       !- Ceiling Height {m}
  ,                                       !- Volume {m3}
  ,                                       !- Floor Area {m2}
  ,                                       !- Zone Inside Convection Algorithm
  ,                                       !- Zone Outside Convection Algorithm
  ,                                       !- Zone Conditioning Equipment List Name
  {b3d8025c-4aa1-43df-a979-72bded5f4a04}, !- Zone Air Inlet Port List
  {b695ff6c-1834-4c89-aac0-290691ad9956}, !- Zone Air Exhaust Port List
  {747c1523-dea1-4053-9a6e-3dcfc0cf9592}, !- Zone Air Node Name
  {ba11e1ba-8f99-4595-9a1b-3fd4d11f7c10}, !- Zone Return Air Port List
  ,                                       !- Primary Daylighting Control Name
  ,                                       !- Fraction of Zone Controlled by Primary Daylighting Control
  ,                                       !- Secondary Daylighting Control Name
  ,                                       !- Fraction of Zone Controlled by Secondary Daylighting Control
  ,                                       !- Illuminance Map Name
  ,                                       !- Group Rendering Name
  ,                                       !- Thermostat Name
  No;                                     !- Use Ideal Air Loads

OS:Node,
  {b40a9cf9-dc0e-4158-9b43-edce8bfaa2cc}, !- Handle
  Node 1,                                 !- Name
  {747c1523-dea1-4053-9a6e-3dcfc0cf9592}, !- Inlet Port
  ;                                       !- Outlet Port

OS:Connection,
  {747c1523-dea1-4053-9a6e-3dcfc0cf9592}, !- Handle
  {699a892d-590b-440c-98f4-99834ba5aa4f}, !- Name
  {4979e67e-9a44-45ef-b186-13b77ff81f85}, !- Source Object
  11,                                     !- Outlet Port
  {b40a9cf9-dc0e-4158-9b43-edce8bfaa2cc}, !- Target Object
  2;                                      !- Inlet Port

OS:PortList,
  {b3d8025c-4aa1-43df-a979-72bded5f4a04}, !- Handle
  {87853ea0-145e-45e3-af82-c13f1b601277}, !- Name
  {4979e67e-9a44-45ef-b186-13b77ff81f85}; !- HVAC Component

OS:PortList,
  {b695ff6c-1834-4c89-aac0-290691ad9956}, !- Handle
  {66e97e9e-45ae-4a3f-bdc7-5e77e7734b79}, !- Name
  {4979e67e-9a44-45ef-b186-13b77ff81f85}; !- HVAC Component

OS:PortList,
  {ba11e1ba-8f99-4595-9a1b-3fd4d11f7c10}, !- Handle
  {cca01804-2da9-49f3-a04d-7eab4ac8bc0b}, !- Name
  {4979e67e-9a44-45ef-b186-13b77ff81f85}; !- HVAC Component

OS:Sizing:Zone,
  {f401673c-51ad-4917-8771-3f8e882bb9a0}, !- Handle
  {4979e67e-9a44-45ef-b186-13b77ff81f85}, !- Zone or ZoneList Name
  SupplyAirTemperature,                   !- Zone Cooling Design Supply Air Temperature Input Method
  14,                                     !- Zone Cooling Design Supply Air Temperature {C}
  11.11,                                  !- Zone Cooling Design Supply Air Temperature Difference {deltaC}
  SupplyAirTemperature,                   !- Zone Heating Design Supply Air Temperature Input Method
  40,                                     !- Zone Heating Design Supply Air Temperature {C}
  11.11,                                  !- Zone Heating Design Supply Air Temperature Difference {deltaC}
  0.0085,                                 !- Zone Cooling Design Supply Air Humidity Ratio {kg-H2O/kg-air}
  0.008,                                  !- Zone Heating Design Supply Air Humidity Ratio {kg-H2O/kg-air}
  ,                                       !- Zone Heating Sizing Factor
  ,                                       !- Zone Cooling Sizing Factor
  DesignDay,                              !- Cooling Design Air Flow Method
  ,                                       !- Cooling Design Air Flow Rate {m3/s}
  ,                                       !- Cooling Minimum Air Flow per Zone Floor Area {m3/s-m2}
  ,                                       !- Cooling Minimum Air Flow {m3/s}
  ,                                       !- Cooling Minimum Air Flow Fraction
  DesignDay,                              !- Heating Design Air Flow Method
  ,                                       !- Heating Design Air Flow Rate {m3/s}
  ,                                       !- Heating Maximum Air Flow per Zone Floor Area {m3/s-m2}
  ,                                       !- Heating Maximum Air Flow {m3/s}
  ,                                       !- Heating Maximum Air Flow Fraction
  ,                                       !- Design Zone Air Distribution Effectiveness in Cooling Mode
  ,                                       !- Design Zone Air Distribution Effectiveness in Heating Mode
  No,                                     !- Account for Dedicated Outdoor Air System
  NeutralSupplyAir,                       !- Dedicated Outdoor Air System Control Strategy
  autosize,                               !- Dedicated Outdoor Air Low Setpoint Temperature for Design {C}
  autosize;                               !- Dedicated Outdoor Air High Setpoint Temperature for Design {C}

OS:ZoneHVAC:EquipmentList,
  {0032f1de-c2f9-4869-8b59-434a39d61be9}, !- Handle
  Zone HVAC Equipment List 1,             !- Name
  {4979e67e-9a44-45ef-b186-13b77ff81f85}; !- Thermal Zone

OS:Space,
  {6cd7b211-a245-4d5c-bf03-0f71a0e67142}, !- Handle
  living space,                           !- Name
  {4f6959d3-61a7-4209-9023-b4c881d9f16c}, !- Space Type Name
  ,                                       !- Default Construction Set Name
  ,                                       !- Default Schedule Set Name
  ,                                       !- Direction of Relative North {deg}
  ,                                       !- X Origin {m}
  ,                                       !- Y Origin {m}
  ,                                       !- Z Origin {m}
  ,                                       !- Building Story Name
  {4979e67e-9a44-45ef-b186-13b77ff81f85}, !- Thermal Zone Name
  ,                                       !- Part of Total Floor Area
  ,                                       !- Design Specification Outdoor Air Object Name
  {75af516e-a1bb-44cd-9367-f734ed61ee20}; !- Building Unit Name

OS:Surface,
  {4d8b3a4d-3691-4377-9301-4169808c31a5}, !- Handle
  Surface 1,                              !- Name
  Floor,                                  !- Surface Type
  ,                                       !- Construction Name
  {6cd7b211-a245-4d5c-bf03-0f71a0e67142}, !- Space Name
  Surface,                                !- Outside Boundary Condition
  {949799c1-9c21-43dd-94b5-bffb2f2ce4c8}, !- Outside Boundary Condition Object
  NoSun,                                  !- Sun Exposure
  NoWind,                                 !- Wind Exposure
  ,                                       !- View Factor to Ground
  ,                                       !- Number of Vertices
  0, -12.9315688143396, 0,                !- X,Y,Z Vertex 1 {m}
  0, 0, 0,                                !- X,Y,Z Vertex 2 {m}
  6.46578440716979, 0, 0,                 !- X,Y,Z Vertex 3 {m}
  6.46578440716979, -12.9315688143396, 0; !- X,Y,Z Vertex 4 {m}

OS:Surface,
  {d6c2ce6f-6d4c-420d-ad7d-dd53688cbfb2}, !- Handle
  Surface 2,                              !- Name
  Wall,                                   !- Surface Type
  ,                                       !- Construction Name
  {6cd7b211-a245-4d5c-bf03-0f71a0e67142}, !- Space Name
  Outdoors,                               !- Outside Boundary Condition
  ,                                       !- Outside Boundary Condition Object
  SunExposed,                             !- Sun Exposure
  WindExposed,                            !- Wind Exposure
  ,                                       !- View Factor to Ground
  ,                                       !- Number of Vertices
  0, 0, 2.4384,                           !- X,Y,Z Vertex 1 {m}
  0, 0, 0,                                !- X,Y,Z Vertex 2 {m}
  0, -12.9315688143396, 0,                !- X,Y,Z Vertex 3 {m}
  0, -12.9315688143396, 2.4384;           !- X,Y,Z Vertex 4 {m}

OS:Surface,
  {39b2f2b2-4062-4a14-86c3-7760421dd418}, !- Handle
  Surface 3,                              !- Name
  Wall,                                   !- Surface Type
  ,                                       !- Construction Name
  {6cd7b211-a245-4d5c-bf03-0f71a0e67142}, !- Space Name
  Adiabatic,                              !- Outside Boundary Condition
  ,                                       !- Outside Boundary Condition Object
  NoSun,                                  !- Sun Exposure
  NoWind,                                 !- Wind Exposure
  ,                                       !- View Factor to Ground
  ,                                       !- Number of Vertices
  6.46578440716979, 0, 2.4384,            !- X,Y,Z Vertex 1 {m}
  6.46578440716979, 0, 0,                 !- X,Y,Z Vertex 2 {m}
  0, 0, 0,                                !- X,Y,Z Vertex 3 {m}
  0, 0, 2.4384;                           !- X,Y,Z Vertex 4 {m}

OS:Surface,
  {12cefbe1-8707-4053-adeb-cb005547222c}, !- Handle
  Surface 4,                              !- Name
  Wall,                                   !- Surface Type
  ,                                       !- Construction Name
  {6cd7b211-a245-4d5c-bf03-0f71a0e67142}, !- Space Name
  Surface,                                !- Outside Boundary Condition
  {96b15fef-ef29-409e-b56c-60cee835d335}, !- Outside Boundary Condition Object
  NoSun,                                  !- Sun Exposure
  NoWind,                                 !- Wind Exposure
  ,                                       !- View Factor to Ground
  ,                                       !- Number of Vertices
  6.46578440716979, -12.9315688143396, 2.4384, !- X,Y,Z Vertex 1 {m}
  6.46578440716979, -12.9315688143396, 0, !- X,Y,Z Vertex 2 {m}
  6.46578440716979, 0, 0,                 !- X,Y,Z Vertex 3 {m}
  6.46578440716979, 0, 2.4384;            !- X,Y,Z Vertex 4 {m}

OS:Surface,
  {c99824fb-0682-40b4-b3d0-7c85378e1fb0}, !- Handle
  Surface 5,                              !- Name
  Wall,                                   !- Surface Type
  ,                                       !- Construction Name
  {6cd7b211-a245-4d5c-bf03-0f71a0e67142}, !- Space Name
  Outdoors,                               !- Outside Boundary Condition
  ,                                       !- Outside Boundary Condition Object
  SunExposed,                             !- Sun Exposure
  WindExposed,                            !- Wind Exposure
  ,                                       !- View Factor to Ground
  ,                                       !- Number of Vertices
  0, -12.9315688143396, 2.4384,           !- X,Y,Z Vertex 1 {m}
  0, -12.9315688143396, 0,                !- X,Y,Z Vertex 2 {m}
  6.46578440716979, -12.9315688143396, 0, !- X,Y,Z Vertex 3 {m}
  6.46578440716979, -12.9315688143396, 2.4384; !- X,Y,Z Vertex 4 {m}

OS:Surface,
  {8e90631e-012a-4d17-ad91-7ac027bc7d04}, !- Handle
  Surface 6,                              !- Name
  RoofCeiling,                            !- Surface Type
  ,                                       !- Construction Name
  {6cd7b211-a245-4d5c-bf03-0f71a0e67142}, !- Space Name
  Outdoors,                               !- Outside Boundary Condition
  ,                                       !- Outside Boundary Condition Object
  SunExposed,                             !- Sun Exposure
  WindExposed,                            !- Wind Exposure
  ,                                       !- View Factor to Ground
  ,                                       !- Number of Vertices
  6.46578440716979, -12.9315688143396, 2.4384, !- X,Y,Z Vertex 1 {m}
  6.46578440716979, 0, 2.4384,            !- X,Y,Z Vertex 2 {m}
  0, 0, 2.4384,                           !- X,Y,Z Vertex 3 {m}
  0, -12.9315688143396, 2.4384;           !- X,Y,Z Vertex 4 {m}

OS:SpaceType,
  {4f6959d3-61a7-4209-9023-b4c881d9f16c}, !- Handle
  Space Type 1,                           !- Name
  ,                                       !- Default Construction Set Name
  ,                                       !- Default Schedule Set Name
  ,                                       !- Group Rendering Name
  ,                                       !- Design Specification Outdoor Air Object Name
  ,                                       !- Standards Building Type
  living;                                 !- Standards Space Type

OS:ThermalZone,
  {42e29335-693e-47c1-a7e9-0de88167a262}, !- Handle
  living zone|unit 2,                     !- Name
  ,                                       !- Multiplier
  ,                                       !- Ceiling Height {m}
  ,                                       !- Volume {m3}
  ,                                       !- Floor Area {m2}
  ,                                       !- Zone Inside Convection Algorithm
  ,                                       !- Zone Outside Convection Algorithm
  ,                                       !- Zone Conditioning Equipment List Name
  {bdfc50fc-c33d-4367-a3bf-ed9554527f7f}, !- Zone Air Inlet Port List
  {ee365adf-58ac-451d-83ec-a7b340a46284}, !- Zone Air Exhaust Port List
  {78b2df1f-4fdd-4663-88d1-cbfbe6547e2c}, !- Zone Air Node Name
  {7f6b00e0-3703-45bb-b9b9-ac9a77c14f3b}, !- Zone Return Air Port List
  ,                                       !- Primary Daylighting Control Name
  ,                                       !- Fraction of Zone Controlled by Primary Daylighting Control
  ,                                       !- Secondary Daylighting Control Name
  ,                                       !- Fraction of Zone Controlled by Secondary Daylighting Control
  ,                                       !- Illuminance Map Name
  ,                                       !- Group Rendering Name
  ,                                       !- Thermostat Name
  No;                                     !- Use Ideal Air Loads

OS:Node,
  {068876a8-0bd5-4228-9049-b90712af2b89}, !- Handle
  Node 2,                                 !- Name
  {78b2df1f-4fdd-4663-88d1-cbfbe6547e2c}, !- Inlet Port
  ;                                       !- Outlet Port

OS:Connection,
  {78b2df1f-4fdd-4663-88d1-cbfbe6547e2c}, !- Handle
  {0a1cde6f-f7d9-48e5-a245-143db9e3eb45}, !- Name
  {42e29335-693e-47c1-a7e9-0de88167a262}, !- Source Object
  11,                                     !- Outlet Port
  {068876a8-0bd5-4228-9049-b90712af2b89}, !- Target Object
  2;                                      !- Inlet Port

OS:PortList,
  {bdfc50fc-c33d-4367-a3bf-ed9554527f7f}, !- Handle
  {921b0a08-650c-435d-b4f5-ce74791cdb4c}, !- Name
  {42e29335-693e-47c1-a7e9-0de88167a262}; !- HVAC Component

OS:PortList,
  {ee365adf-58ac-451d-83ec-a7b340a46284}, !- Handle
  {34eae2f8-daf5-4608-8961-0895281289d4}, !- Name
  {42e29335-693e-47c1-a7e9-0de88167a262}; !- HVAC Component

OS:PortList,
  {7f6b00e0-3703-45bb-b9b9-ac9a77c14f3b}, !- Handle
  {f2e0fc7e-3853-4a92-8437-ab84cbb135f3}, !- Name
  {42e29335-693e-47c1-a7e9-0de88167a262}; !- HVAC Component

OS:Sizing:Zone,
  {8d43fdea-d444-4e07-a0c0-dc3aed27b16f}, !- Handle
  {42e29335-693e-47c1-a7e9-0de88167a262}, !- Zone or ZoneList Name
  SupplyAirTemperature,                   !- Zone Cooling Design Supply Air Temperature Input Method
  14,                                     !- Zone Cooling Design Supply Air Temperature {C}
  11.11,                                  !- Zone Cooling Design Supply Air Temperature Difference {deltaC}
  SupplyAirTemperature,                   !- Zone Heating Design Supply Air Temperature Input Method
  40,                                     !- Zone Heating Design Supply Air Temperature {C}
  11.11,                                  !- Zone Heating Design Supply Air Temperature Difference {deltaC}
  0.0085,                                 !- Zone Cooling Design Supply Air Humidity Ratio {kg-H2O/kg-air}
  0.008,                                  !- Zone Heating Design Supply Air Humidity Ratio {kg-H2O/kg-air}
  ,                                       !- Zone Heating Sizing Factor
  ,                                       !- Zone Cooling Sizing Factor
  DesignDay,                              !- Cooling Design Air Flow Method
  ,                                       !- Cooling Design Air Flow Rate {m3/s}
  ,                                       !- Cooling Minimum Air Flow per Zone Floor Area {m3/s-m2}
  ,                                       !- Cooling Minimum Air Flow {m3/s}
  ,                                       !- Cooling Minimum Air Flow Fraction
  DesignDay,                              !- Heating Design Air Flow Method
  ,                                       !- Heating Design Air Flow Rate {m3/s}
  ,                                       !- Heating Maximum Air Flow per Zone Floor Area {m3/s-m2}
  ,                                       !- Heating Maximum Air Flow {m3/s}
  ,                                       !- Heating Maximum Air Flow Fraction
  ,                                       !- Design Zone Air Distribution Effectiveness in Cooling Mode
  ,                                       !- Design Zone Air Distribution Effectiveness in Heating Mode
  No,                                     !- Account for Dedicated Outdoor Air System
  NeutralSupplyAir,                       !- Dedicated Outdoor Air System Control Strategy
  autosize,                               !- Dedicated Outdoor Air Low Setpoint Temperature for Design {C}
  autosize;                               !- Dedicated Outdoor Air High Setpoint Temperature for Design {C}

OS:ZoneHVAC:EquipmentList,
  {112b6483-2e66-439e-a378-42f8c6d3623d}, !- Handle
  Zone HVAC Equipment List 2,             !- Name
  {42e29335-693e-47c1-a7e9-0de88167a262}; !- Thermal Zone

OS:Space,
  {a27c096d-2839-49c0-b0f9-7db0e1228c2c}, !- Handle
  living space|unit 2,                    !- Name
  {4f6959d3-61a7-4209-9023-b4c881d9f16c}, !- Space Type Name
  ,                                       !- Default Construction Set Name
  ,                                       !- Default Schedule Set Name
  ,                                       !- Direction of Relative North {deg}
  ,                                       !- X Origin {m}
  ,                                       !- Y Origin {m}
  ,                                       !- Z Origin {m}
  ,                                       !- Building Story Name
  {42e29335-693e-47c1-a7e9-0de88167a262}, !- Thermal Zone Name
  ,                                       !- Part of Total Floor Area
  ,                                       !- Design Specification Outdoor Air Object Name
  {6db44df3-117d-44f8-b337-913356afc4e5}; !- Building Unit Name

OS:Surface,
  {24a56fc3-b1d0-4805-b63b-ba635ce263ab}, !- Handle
  Surface 7,                              !- Name
  Floor,                                  !- Surface Type
  ,                                       !- Construction Name
  {a27c096d-2839-49c0-b0f9-7db0e1228c2c}, !- Space Name
  Surface,                                !- Outside Boundary Condition
  {eb79a7d3-a462-4b20-937e-0dc6b9c0fb7a}, !- Outside Boundary Condition Object
  NoSun,                                  !- Sun Exposure
  NoWind,                                 !- Wind Exposure
  ,                                       !- View Factor to Ground
  ,                                       !- Number of Vertices
  0, 3.048, 0,                            !- X,Y,Z Vertex 1 {m}
  0, 15.9795688143396, 0,                 !- X,Y,Z Vertex 2 {m}
  6.46578440716979, 15.9795688143396, 0,  !- X,Y,Z Vertex 3 {m}
  6.46578440716979, 3.048, 0;             !- X,Y,Z Vertex 4 {m}

OS:Surface,
  {dc2ece7a-49f5-4072-832b-b1e4b7d142ed}, !- Handle
  Surface 8,                              !- Name
  Wall,                                   !- Surface Type
  ,                                       !- Construction Name
  {a27c096d-2839-49c0-b0f9-7db0e1228c2c}, !- Space Name
  Outdoors,                               !- Outside Boundary Condition
  ,                                       !- Outside Boundary Condition Object
  SunExposed,                             !- Sun Exposure
  WindExposed,                            !- Wind Exposure
  ,                                       !- View Factor to Ground
  ,                                       !- Number of Vertices
  0, 15.9795688143396, 2.4384,            !- X,Y,Z Vertex 1 {m}
  0, 15.9795688143396, 0,                 !- X,Y,Z Vertex 2 {m}
  0, 3.048, 0,                            !- X,Y,Z Vertex 3 {m}
  0, 3.048, 2.4384;                       !- X,Y,Z Vertex 4 {m}

OS:Surface,
  {da3807d7-ef45-490e-ae4b-9741b2ab29de}, !- Handle
  Surface 9,                              !- Name
  Wall,                                   !- Surface Type
  ,                                       !- Construction Name
  {a27c096d-2839-49c0-b0f9-7db0e1228c2c}, !- Space Name
  Outdoors,                               !- Outside Boundary Condition
  ,                                       !- Outside Boundary Condition Object
  SunExposed,                             !- Sun Exposure
  WindExposed,                            !- Wind Exposure
  ,                                       !- View Factor to Ground
  ,                                       !- Number of Vertices
  6.46578440716979, 15.9795688143396, 2.4384, !- X,Y,Z Vertex 1 {m}
  6.46578440716979, 15.9795688143396, 0,  !- X,Y,Z Vertex 2 {m}
  0, 15.9795688143396, 0,                 !- X,Y,Z Vertex 3 {m}
  0, 15.9795688143396, 2.4384;            !- X,Y,Z Vertex 4 {m}

OS:Surface,
  {206ef4ea-1331-4535-82eb-9fc449611bb5}, !- Handle
  Surface 10,                             !- Name
  Wall,                                   !- Surface Type
  ,                                       !- Construction Name
  {a27c096d-2839-49c0-b0f9-7db0e1228c2c}, !- Space Name
  Surface,                                !- Outside Boundary Condition
  {b940f0c2-a2ad-43cf-959e-c6d765a6551c}, !- Outside Boundary Condition Object
  NoSun,                                  !- Sun Exposure
  NoWind,                                 !- Wind Exposure
  ,                                       !- View Factor to Ground
  ,                                       !- Number of Vertices
  6.46578440716979, 3.048, 2.4384,        !- X,Y,Z Vertex 1 {m}
  6.46578440716979, 3.048, 0,             !- X,Y,Z Vertex 2 {m}
  6.46578440716979, 15.9795688143396, 0,  !- X,Y,Z Vertex 3 {m}
  6.46578440716979, 15.9795688143396, 2.4384; !- X,Y,Z Vertex 4 {m}

OS:Surface,
  {e7f2be92-5fa9-46f0-919c-d7f5e1aa3b68}, !- Handle
  Surface 11,                             !- Name
  Wall,                                   !- Surface Type
  ,                                       !- Construction Name
  {a27c096d-2839-49c0-b0f9-7db0e1228c2c}, !- Space Name
  Adiabatic,                              !- Outside Boundary Condition
  ,                                       !- Outside Boundary Condition Object
  NoSun,                                  !- Sun Exposure
  NoWind,                                 !- Wind Exposure
  ,                                       !- View Factor to Ground
  ,                                       !- Number of Vertices
  0, 3.048, 2.4384,                       !- X,Y,Z Vertex 1 {m}
  0, 3.048, 0,                            !- X,Y,Z Vertex 2 {m}
  6.46578440716979, 3.048, 0,             !- X,Y,Z Vertex 3 {m}
  6.46578440716979, 3.048, 2.4384;        !- X,Y,Z Vertex 4 {m}

OS:Surface,
  {dba5d95b-378f-4177-ac33-a5e28de47ffc}, !- Handle
  Surface 12,                             !- Name
  RoofCeiling,                            !- Surface Type
  ,                                       !- Construction Name
  {a27c096d-2839-49c0-b0f9-7db0e1228c2c}, !- Space Name
  Outdoors,                               !- Outside Boundary Condition
  ,                                       !- Outside Boundary Condition Object
  SunExposed,                             !- Sun Exposure
  WindExposed,                            !- Wind Exposure
  ,                                       !- View Factor to Ground
  ,                                       !- Number of Vertices
  6.46578440716979, 3.048, 2.4384,        !- X,Y,Z Vertex 1 {m}
  6.46578440716979, 15.9795688143396, 2.4384, !- X,Y,Z Vertex 2 {m}
  0, 15.9795688143396, 2.4384,            !- X,Y,Z Vertex 3 {m}
  0, 3.048, 2.4384;                       !- X,Y,Z Vertex 4 {m}

OS:ThermalZone,
  {26588fc8-b35c-4ab4-b8e5-e02c05f870be}, !- Handle
  living zone|unit 3,                     !- Name
  ,                                       !- Multiplier
  ,                                       !- Ceiling Height {m}
  ,                                       !- Volume {m3}
  ,                                       !- Floor Area {m2}
  ,                                       !- Zone Inside Convection Algorithm
  ,                                       !- Zone Outside Convection Algorithm
  ,                                       !- Zone Conditioning Equipment List Name
  {84576294-c09e-4e73-a20d-93c4010e1366}, !- Zone Air Inlet Port List
  {ac2ec09e-3e24-4139-9b37-26ce7201e551}, !- Zone Air Exhaust Port List
  {c155d1c9-9a5d-42b5-b3dc-1d4d006c1f3b}, !- Zone Air Node Name
  {aae13e7b-2fd2-446e-838a-ee69ccd2a948}, !- Zone Return Air Port List
  ,                                       !- Primary Daylighting Control Name
  ,                                       !- Fraction of Zone Controlled by Primary Daylighting Control
  ,                                       !- Secondary Daylighting Control Name
  ,                                       !- Fraction of Zone Controlled by Secondary Daylighting Control