!- NOTE: Auto-generated from /test/osw_files/SFA_4units_1story_CS_UA_3Beds_2Baths_Denver.osw

OS:Version,
  {648b1b68-26da-4cac-8267-b6d24972b129}, !- Handle
  2.6.2;                                  !- Version Identifier

OS:Building,
  {b37deab0-8d5d-4762-8f4c-524462ac2606}, !- Handle
  Building 1,                             !- Name
  ,                                       !- Building Sector Type
  0,                                      !- North Axis {deg}
  ,                                       !- Nominal Floor to Floor Height {m}
  ,                                       !- Space Type Name
  ,                                       !- Default Construction Set Name
  ,                                       !- Default Schedule Set Name
  1,                                      !- Standards Number of Stories
  1,                                      !- Standards Number of Above Ground Stories
  singlefamilyattached,                   !- Standards Building Type
  4;                                      !- Standards Number of Living Units

OS:Facility,
  {97d131f2-d580-4502-b14a-c7e48e6e2228}; !- Handle

OS:Site,
  {de128b9a-0fc7-4b59-993c-441c021dc96c}, !- Handle
  Denver Intl Ap_CO_USA,                  !- Name
  39.83,                                  !- Latitude {deg}
  -104.65,                                !- Longitude {deg}
  -7,                                     !- Time Zone {hr}
  1650,                                   !- Elevation {m}
  ;                                       !- Terrain

OS:SimulationControl,
  {abb3af62-601e-4724-a3ea-7c4d8802101f}, !- Handle
  ,                                       !- Do Zone Sizing Calculation
  ,                                       !- Do System Sizing Calculation
  ,                                       !- Do Plant Sizing Calculation
  No;                                     !- Run Simulation for Sizing Periods

OS:Sizing:Parameters,
  {77a2ea67-641b-4243-be39-f80dc6464940}, !- Handle
  1.25,                                   !- Heating Sizing Factor
  1.15;                                   !- Cooling Sizing Factor

OS:Timestep,
  {9689af02-4ff1-4011-80ff-125707a1df6d}, !- Handle
  6;                                      !- Number of Timesteps per Hour

OS:ShadowCalculation,
  {8c96250a-cb65-4b66-a7d8-ba045259274e}, !- Handle
  20,                                     !- Calculation Frequency
  200;                                    !- Maximum Figures in Shadow Overlap Calculations

OS:HeatBalanceAlgorithm,
  {85ba0b10-5e94-4d6b-8072-5ceeb4881eca}, !- Handle
  ConductionTransferFunction,             !- Algorithm
  200;                                    !- Surface Temperature Upper Limit {C}

OS:RunPeriod,
  {6844268d-39e9-4929-b325-d3a6e89a54e9}, !- Handle
  Run Period 1,                           !- Name
  1,                                      !- Begin Month
  1,                                      !- Begin Day of Month
  12,                                     !- End Month
  31,                                     !- End Day of Month
  ,                                       !- Use Weather File Holidays and Special Days
  ,                                       !- Use Weather File Daylight Saving Period
  ,                                       !- Apply Weekend Holiday Rule
  ,                                       !- Use Weather File Rain Indicators
  ,                                       !- Use Weather File Snow Indicators
  ;                                       !- Number of Times Runperiod to be Repeated

OS:LifeCycleCost:Parameters,
  {f1693f20-7f1e-4d0c-872a-21c48e23af4e}, !- Handle
  ,                                       !- Analysis Type
  ,                                       !- Discounting Convention
  ,                                       !- Inflation Approach
  ,                                       !- Real Discount Rate
  ,                                       !- Nominal Discount Rate
  ,                                       !- Inflation
  ,                                       !- Base Date Month
  ,                                       !- Base Date Year
  ,                                       !- Service Date Month
  ,                                       !- Service Date Year
  ;                                       !- Length of Study Period in Years

OS:SurfaceConvectionAlgorithm:Outside,
  {82f8795c-9f31-4f00-a46b-61ac299ecc6d}, !- Handle
  DOE-2;                                  !- Algorithm

OS:SurfaceConvectionAlgorithm:Inside,
  {bf528ed9-1233-4096-b970-9355e97989d6}, !- Handle
  TARP;                                   !- Algorithm

OS:ZoneCapacitanceMultiplier:ResearchSpecial,
  {c523bb5b-da99-45e0-88ba-97d54cd8074c}, !- Handle
  ,                                       !- Temperature Capacity Multiplier
  15,                                     !- Humidity Capacity Multiplier
  ;                                       !- Carbon Dioxide Capacity Multiplier

OS:ThermalZone,
  {31bf4943-f84c-4ad7-aa6d-d4b2408754b8}, !- Handle
  living zone,                            !- Name
  ,                                       !- Multiplier
  ,                                       !- Ceiling Height {m}
  ,                                       !- Volume {m3}
  ,                                       !- Floor Area {m2}
  ,                                       !- Zone Inside Convection Algorithm
  ,                                       !- Zone Outside Convection Algorithm
  ,                                       !- Zone Conditioning Equipment List Name
  {c6e1d025-6ba9-499a-91f5-634890e7759b}, !- Zone Air Inlet Port List
  {7f2e01d1-e0c7-4fc8-9283-ac6c9a91940e}, !- Zone Air Exhaust Port List
  {17a5e19c-8449-4ab1-a588-cb271e480e77}, !- Zone Air Node Name
  {168af0f7-7086-47f5-8d9b-67fa6bd1130d}, !- Zone Return Air Port List
  ,                                       !- Primary Daylighting Control Name
  ,                                       !- Fraction of Zone Controlled by Primary Daylighting Control
  ,                                       !- Secondary Daylighting Control Name
  ,                                       !- Fraction of Zone Controlled by Secondary Daylighting Control
  ,                                       !- Illuminance Map Name
  ,                                       !- Group Rendering Name
  ,                                       !- Thermostat Name
  No;                                     !- Use Ideal Air Loads

OS:Node,
  {92043215-fd4f-46ce-ac5e-1ba70eead7fc}, !- Handle
  Node 1,                                 !- Name
  {17a5e19c-8449-4ab1-a588-cb271e480e77}, !- Inlet Port
  ;                                       !- Outlet Port

OS:Connection,
  {17a5e19c-8449-4ab1-a588-cb271e480e77}, !- Handle
  {5c734bc6-4af4-4570-8767-3734845d13cb}, !- Name
  {31bf4943-f84c-4ad7-aa6d-d4b2408754b8}, !- Source Object
  11,                                     !- Outlet Port
  {92043215-fd4f-46ce-ac5e-1ba70eead7fc}, !- Target Object
  2;                                      !- Inlet Port

OS:PortList,
  {c6e1d025-6ba9-499a-91f5-634890e7759b}, !- Handle
  {951f9918-bd37-4abf-ae55-9158195ef389}, !- Name
  {31bf4943-f84c-4ad7-aa6d-d4b2408754b8}; !- HVAC Component

OS:PortList,
  {7f2e01d1-e0c7-4fc8-9283-ac6c9a91940e}, !- Handle
  {7d6c65ed-0e45-4964-a9af-0caf54cc9fe9}, !- Name
  {31bf4943-f84c-4ad7-aa6d-d4b2408754b8}; !- HVAC Component

OS:PortList,
  {168af0f7-7086-47f5-8d9b-67fa6bd1130d}, !- Handle
  {e7880eb1-0ccc-4ca3-98b2-7ea3fe56c28b}, !- Name
  {31bf4943-f84c-4ad7-aa6d-d4b2408754b8}; !- HVAC Component

OS:Sizing:Zone,
  {faa05b06-f98d-4ccc-90a2-98f0d33b038f}, !- Handle
  {31bf4943-f84c-4ad7-aa6d-d4b2408754b8}, !- Zone or ZoneList Name
  SupplyAirTemperature,                   !- Zone Cooling Design Supply Air Temperature Input Method
  14,                                     !- Zone Cooling Design Supply Air Temperature {C}
  11.11,                                  !- Zone Cooling Design Supply Air Temperature Difference {deltaC}
  SupplyAirTemperature,                   !- Zone Heating Design Supply Air Temperature Input Method
  40,                                     !- Zone Heating Design Supply Air Temperature {C}
  11.11,                                  !- Zone Heating Design Supply Air Temperature Difference {deltaC}
  0.0085,                                 !- Zone Cooling Design Supply Air Humidity Ratio {kg-H2O/kg-air}
  0.008,                                  !- Zone Heating Design Supply Air Humidity Ratio {kg-H2O/kg-air}
  ,                                       !- Zone Heating Sizing Factor
  ,                                       !- Zone Cooling Sizing Factor
  DesignDay,                              !- Cooling Design Air Flow Method
  ,                                       !- Cooling Design Air Flow Rate {m3/s}
  ,                                       !- Cooling Minimum Air Flow per Zone Floor Area {m3/s-m2}
  ,                                       !- Cooling Minimum Air Flow {m3/s}
  ,                                       !- Cooling Minimum Air Flow Fraction
  DesignDay,                              !- Heating Design Air Flow Method
  ,                                       !- Heating Design Air Flow Rate {m3/s}
  ,                                       !- Heating Maximum Air Flow per Zone Floor Area {m3/s-m2}
  ,                                       !- Heating Maximum Air Flow {m3/s}
  ,                                       !- Heating Maximum Air Flow Fraction
  ,                                       !- Design Zone Air Distribution Effectiveness in Cooling Mode
  ,                                       !- Design Zone Air Distribution Effectiveness in Heating Mode
  No,                                     !- Account for Dedicated Outdoor Air System
  NeutralSupplyAir,                       !- Dedicated Outdoor Air System Control Strategy
  autosize,                               !- Dedicated Outdoor Air Low Setpoint Temperature for Design {C}
  autosize;                               !- Dedicated Outdoor Air High Setpoint Temperature for Design {C}

OS:ZoneHVAC:EquipmentList,
  {8bb7fc01-7f79-4131-bf5e-eb3ebe4f5df1}, !- Handle
  Zone HVAC Equipment List 1,             !- Name
  {31bf4943-f84c-4ad7-aa6d-d4b2408754b8}; !- Thermal Zone

OS:Space,
  {99d7665f-2465-403a-b045-cbf5d0c59fd6}, !- Handle
  living space,                           !- Name
  {f79e4d44-4b3c-4af2-94e7-4dd689156d8c}, !- Space Type Name
  ,                                       !- Default Construction Set Name
  ,                                       !- Default Schedule Set Name
  ,                                       !- Direction of Relative North {deg}
  ,                                       !- X Origin {m}
  ,                                       !- Y Origin {m}
  ,                                       !- Z Origin {m}
  ,                                       !- Building Story Name
  {31bf4943-f84c-4ad7-aa6d-d4b2408754b8}, !- Thermal Zone Name
  ,                                       !- Part of Total Floor Area
  ,                                       !- Design Specification Outdoor Air Object Name
  {0ec1647e-005a-40d2-bb0f-a51b7f7a0015}; !- Building Unit Name

OS:Surface,
  {c75e9963-883e-4a69-b3ed-81b71ce8e2c8}, !- Handle
  Surface 1,                              !- Name
  Floor,                                  !- Surface Type
  ,                                       !- Construction Name
  {99d7665f-2465-403a-b045-cbf5d0c59fd6}, !- Space Name
  Surface,                                !- Outside Boundary Condition
  {9dcfd58a-9e64-4ea5-86df-5d3e697b097a}, !- Outside Boundary Condition Object
  NoSun,                                  !- Sun Exposure
  NoWind,                                 !- Wind Exposure
  ,                                       !- View Factor to Ground
  ,                                       !- Number of Vertices
  0, -12.9315688143396, 0,                !- X,Y,Z Vertex 1 {m}
  0, 0, 0,                                !- X,Y,Z Vertex 2 {m}
  6.46578440716979, 0, 0,                 !- X,Y,Z Vertex 3 {m}
  6.46578440716979, -12.9315688143396, 0; !- X,Y,Z Vertex 4 {m}

OS:Surface,
  {bd607ced-eab4-412b-94a6-58bc19ef5b3f}, !- Handle
  Surface 2,                              !- Name
  Wall,                                   !- Surface Type
  ,                                       !- Construction Name
  {99d7665f-2465-403a-b045-cbf5d0c59fd6}, !- Space Name
  Outdoors,                               !- Outside Boundary Condition
  ,                                       !- Outside Boundary Condition Object
  SunExposed,                             !- Sun Exposure
  WindExposed,                            !- Wind Exposure
  ,                                       !- View Factor to Ground
  ,                                       !- Number of Vertices
  0, 0, 2.4384,                           !- X,Y,Z Vertex 1 {m}
  0, 0, 0,                                !- X,Y,Z Vertex 2 {m}
  0, -12.9315688143396, 0,                !- X,Y,Z Vertex 3 {m}
  0, -12.9315688143396, 2.4384;           !- X,Y,Z Vertex 4 {m}

OS:Surface,
  {23108078-fd4f-46e7-8b56-5005c3f96aff}, !- Handle
  Surface 3,                              !- Name
  Wall,                                   !- Surface Type
  ,                                       !- Construction Name
  {99d7665f-2465-403a-b045-cbf5d0c59fd6}, !- Space Name
  Outdoors,                               !- Outside Boundary Condition
  ,                                       !- Outside Boundary Condition Object
  SunExposed,                             !- Sun Exposure
  WindExposed,                            !- Wind Exposure
  ,                                       !- View Factor to Ground
  ,                                       !- Number of Vertices
  6.46578440716979, 0, 2.4384,            !- X,Y,Z Vertex 1 {m}
  6.46578440716979, 0, 0,                 !- X,Y,Z Vertex 2 {m}
  0, 0, 0,                                !- X,Y,Z Vertex 3 {m}
  0, 0, 2.4384;                           !- X,Y,Z Vertex 4 {m}

OS:Surface,
  {190279f2-c12b-4790-88c9-2a04d88c96e0}, !- Handle
  Surface 4,                              !- Name
  Wall,                                   !- Surface Type
  ,                                       !- Construction Name
  {99d7665f-2465-403a-b045-cbf5d0c59fd6}, !- Space Name
  Surface,                                !- Outside Boundary Condition
  {9949b6d8-ed35-4dba-94ae-e2d355502eac}, !- Outside Boundary Condition Object
  NoSun,                                  !- Sun Exposure
  NoWind,                                 !- Wind Exposure
  ,                                       !- View Factor to Ground
  ,                                       !- Number of Vertices
  6.46578440716979, -12.9315688143396, 2.4384, !- X,Y,Z Vertex 1 {m}
  6.46578440716979, -12.9315688143396, 0, !- X,Y,Z Vertex 2 {m}
  6.46578440716979, 0, 0,                 !- X,Y,Z Vertex 3 {m}
  6.46578440716979, 0, 2.4384;            !- X,Y,Z Vertex 4 {m}

OS:Surface,
  {b563efc8-641d-4d2b-9837-7209f8b4ee21}, !- Handle
  Surface 5,                              !- Name
  Wall,                                   !- Surface Type
  ,                                       !- Construction Name
  {99d7665f-2465-403a-b045-cbf5d0c59fd6}, !- Space Name
  Outdoors,                               !- Outside Boundary Condition
  ,                                       !- Outside Boundary Condition Object
  SunExposed,                             !- Sun Exposure
  WindExposed,                            !- Wind Exposure
  ,                                       !- View Factor to Ground
  ,                                       !- Number of Vertices
  0, -12.9315688143396, 2.4384,           !- X,Y,Z Vertex 1 {m}
  0, -12.9315688143396, 0,                !- X,Y,Z Vertex 2 {m}
  6.46578440716979, -12.9315688143396, 0, !- X,Y,Z Vertex 3 {m}
  6.46578440716979, -12.9315688143396, 2.4384; !- X,Y,Z Vertex 4 {m}

OS:Surface,
  {d6be4b9d-9fd9-4347-bdad-a19599d5d1dc}, !- Handle
  Surface 6,                              !- Name
  RoofCeiling,                            !- Surface Type
  ,                                       !- Construction Name
  {99d7665f-2465-403a-b045-cbf5d0c59fd6}, !- Space Name
  Surface,                                !- Outside Boundary Condition
  {0527aaf3-1f71-4694-be22-b5ed05307dcd}, !- Outside Boundary Condition Object
  NoSun,                                  !- Sun Exposure
  NoWind,                                 !- Wind Exposure
  ,                                       !- View Factor to Ground
  ,                                       !- Number of Vertices
  6.46578440716979, -12.9315688143396, 2.4384, !- X,Y,Z Vertex 1 {m}
  6.46578440716979, 0, 2.4384,            !- X,Y,Z Vertex 2 {m}
  0, 0, 2.4384,                           !- X,Y,Z Vertex 3 {m}
  0, -12.9315688143396, 2.4384;           !- X,Y,Z Vertex 4 {m}

OS:SpaceType,
  {f79e4d44-4b3c-4af2-94e7-4dd689156d8c}, !- Handle
  Space Type 1,                           !- Name
  ,                                       !- Default Construction Set Name
  ,                                       !- Default Schedule Set Name
  ,                                       !- Group Rendering Name
  ,                                       !- Design Specification Outdoor Air Object Name
  ,                                       !- Standards Building Type
  living;                                 !- Standards Space Type

OS:ThermalZone,
  {d6eab7c2-f54a-47b3-aee4-b44eb18344be}, !- Handle
  living zone|unit 2,                     !- Name
  ,                                       !- Multiplier
  ,                                       !- Ceiling Height {m}
  ,                                       !- Volume {m3}
  ,                                       !- Floor Area {m2}
  ,                                       !- Zone Inside Convection Algorithm
  ,                                       !- Zone Outside Convection Algorithm
  ,                                       !- Zone Conditioning Equipment List Name
  {746a3faa-d737-477b-b4f4-5848d87e7170}, !- Zone Air Inlet Port List
  {3c7467af-7bde-41c3-ae72-c469ca090741}, !- Zone Air Exhaust Port List
  {a35a58ce-a377-409d-b95a-636c65565812}, !- Zone Air Node Name
  {1ff7b765-f5e3-44bc-a687-f75978b8ea2e}, !- Zone Return Air Port List
  ,                                       !- Primary Daylighting Control Name
  ,                                       !- Fraction of Zone Controlled by Primary Daylighting Control
  ,                                       !- Secondary Daylighting Control Name
  ,                                       !- Fraction of Zone Controlled by Secondary Daylighting Control
  ,                                       !- Illuminance Map Name
  ,                                       !- Group Rendering Name
  ,                                       !- Thermostat Name
  No;                                     !- Use Ideal Air Loads

OS:Node,
  {2412325c-8433-490a-9141-3a285f257597}, !- Handle
  Node 2,                                 !- Name
  {a35a58ce-a377-409d-b95a-636c65565812}, !- Inlet Port
  ;                                       !- Outlet Port

OS:Connection,
  {a35a58ce-a377-409d-b95a-636c65565812}, !- Handle
  {b6a31bb4-a2f8-422e-ba29-dd496c8681b6}, !- Name
  {d6eab7c2-f54a-47b3-aee4-b44eb18344be}, !- Source Object
  11,                                     !- Outlet Port
  {2412325c-8433-490a-9141-3a285f257597}, !- Target Object
  2;                                      !- Inlet Port

OS:PortList,
  {746a3faa-d737-477b-b4f4-5848d87e7170}, !- Handle
  {111c04e7-ba01-46dc-abf2-92c75b9f1207}, !- Name
  {d6eab7c2-f54a-47b3-aee4-b44eb18344be}; !- HVAC Component

OS:PortList,
  {3c7467af-7bde-41c3-ae72-c469ca090741}, !- Handle
  {9b4cca4f-17b0-4467-b44c-7b7a5e164013}, !- Name
  {d6eab7c2-f54a-47b3-aee4-b44eb18344be}; !- HVAC Component

OS:PortList,
  {1ff7b765-f5e3-44bc-a687-f75978b8ea2e}, !- Handle
  {a888e862-779c-4146-93cf-1055f13325ac}, !- Name
  {d6eab7c2-f54a-47b3-aee4-b44eb18344be}; !- HVAC Component

OS:Sizing:Zone,
  {6fc20404-3ea9-4e28-9897-03a234d91589}, !- Handle
  {d6eab7c2-f54a-47b3-aee4-b44eb18344be}, !- Zone or ZoneList Name
  SupplyAirTemperature,                   !- Zone Cooling Design Supply Air Temperature Input Method
  14,                                     !- Zone Cooling Design Supply Air Temperature {C}
  11.11,                                  !- Zone Cooling Design Supply Air Temperature Difference {deltaC}
  SupplyAirTemperature,                   !- Zone Heating Design Supply Air Temperature Input Method
  40,                                     !- Zone Heating Design Supply Air Temperature {C}
  11.11,                                  !- Zone Heating Design Supply Air Temperature Difference {deltaC}
  0.0085,                                 !- Zone Cooling Design Supply Air Humidity Ratio {kg-H2O/kg-air}
  0.008,                                  !- Zone Heating Design Supply Air Humidity Ratio {kg-H2O/kg-air}
  ,                                       !- Zone Heating Sizing Factor
  ,                                       !- Zone Cooling Sizing Factor
  DesignDay,                              !- Cooling Design Air Flow Method
  ,                                       !- Cooling Design Air Flow Rate {m3/s}
  ,                                       !- Cooling Minimum Air Flow per Zone Floor Area {m3/s-m2}
  ,                                       !- Cooling Minimum Air Flow {m3/s}
  ,                                       !- Cooling Minimum Air Flow Fraction
  DesignDay,                              !- Heating Design Air Flow Method
  ,                                       !- Heating Design Air Flow Rate {m3/s}
  ,                                       !- Heating Maximum Air Flow per Zone Floor Area {m3/s-m2}
  ,                                       !- Heating Maximum Air Flow {m3/s}
  ,                                       !- Heating Maximum Air Flow Fraction
  ,                                       !- Design Zone Air Distribution Effectiveness in Cooling Mode
  ,                                       !- Design Zone Air Distribution Effectiveness in Heating Mode
  No,                                     !- Account for Dedicated Outdoor Air System
  NeutralSupplyAir,                       !- Dedicated Outdoor Air System Control Strategy
  autosize,                               !- Dedicated Outdoor Air Low Setpoint Temperature for Design {C}
  autosize;                               !- Dedicated Outdoor Air High Setpoint Temperature for Design {C}

OS:ZoneHVAC:EquipmentList,
  {de79810b-7bc7-4370-966c-b8503b052886}, !- Handle
  Zone HVAC Equipment List 2,             !- Name
  {d6eab7c2-f54a-47b3-aee4-b44eb18344be}; !- Thermal Zone

OS:Space,
  {cfe767b8-aed1-4cd4-8edc-3a8d250b456a}, !- Handle
  living space|unit 2|story 1,            !- Name
  {f79e4d44-4b3c-4af2-94e7-4dd689156d8c}, !- Space Type Name
  ,                                       !- Default Construction Set Name
  ,                                       !- Default Schedule Set Name
  -0,                                     !- Direction of Relative North {deg}
  0,                                      !- X Origin {m}
  0,                                      !- Y Origin {m}
  0,                                      !- Z Origin {m}
  ,                                       !- Building Story Name
  {d6eab7c2-f54a-47b3-aee4-b44eb18344be}, !- Thermal Zone Name
  ,                                       !- Part of Total Floor Area
  ,                                       !- Design Specification Outdoor Air Object Name
  {1e7bc6b7-75e0-4248-b205-f34e76d0c28d}; !- Building Unit Name

OS:Surface,
  {e0f1fbf5-209b-404d-a1dd-847020fbbd79}, !- Handle
  Surface 12,                             !- Name
  Wall,                                   !- Surface Type
  ,                                       !- Construction Name
  {cfe767b8-aed1-4cd4-8edc-3a8d250b456a}, !- Space Name
  Outdoors,                               !- Outside Boundary Condition
  ,                                       !- Outside Boundary Condition Object
  SunExposed,                             !- Sun Exposure
  WindExposed,                            !- Wind Exposure
  ,                                       !- View Factor to Ground
  ,                                       !- Number of Vertices
  12.9315688143396, 0, 2.4384,            !- X,Y,Z Vertex 1 {m}
  12.9315688143396, 0, 0,                 !- X,Y,Z Vertex 2 {m}
  6.46578440716979, 0, 0,                 !- X,Y,Z Vertex 3 {m}
  6.46578440716979, 0, 2.4384;            !- X,Y,Z Vertex 4 {m}

OS:Surface,
  {fb6fecf5-f56c-4907-ae43-14dff2dec70d}, !- Handle
  Surface 13,                             !- Name
  Wall,                                   !- Surface Type
  ,                                       !- Construction Name
  {cfe767b8-aed1-4cd4-8edc-3a8d250b456a}, !- Space Name
  Outdoors,                               !- Outside Boundary Condition
  ,                                       !- Outside Boundary Condition Object
  SunExposed,                             !- Sun Exposure
  WindExposed,                            !- Wind Exposure
  ,                                       !- View Factor to Ground
  ,                                       !- Number of Vertices
  6.46578440716979, -12.9315688143396, 2.4384, !- X,Y,Z Vertex 1 {m}
  6.46578440716979, -12.9315688143396, 0, !- X,Y,Z Vertex 2 {m}
  12.9315688143396, -12.9315688143396, 0, !- X,Y,Z Vertex 3 {m}
  12.9315688143396, -12.9315688143396, 2.4384; !- X,Y,Z Vertex 4 {m}

OS:Surface,
  {4e7c3f7c-6944-4863-979b-cc80c7834f3c}, !- Handle
  Surface 14,                             !- Name
  Floor,                                  !- Surface Type
  ,                                       !- Construction Name
  {cfe767b8-aed1-4cd4-8edc-3a8d250b456a}, !- Space Name
  Surface,                                !- Outside Boundary Condition
  {ff6e7803-b63b-48ce-b631-69c88951f5a5}, !- Outside Boundary Condition Object
  NoSun,                                  !- Sun Exposure
  NoWind,                                 !- Wind Exposure
  ,                                       !- View Factor to Ground
  ,                                       !- Number of Vertices
  6.46578440716979, -12.9315688143396, 0, !- X,Y,Z Vertex 1 {m}
  6.46578440716979, 0, 0,                 !- X,Y,Z Vertex 2 {m}
  12.9315688143396, 0, 0,                 !- X,Y,Z Vertex 3 {m}
  12.9315688143396, -12.9315688143396, 0; !- X,Y,Z Vertex 4 {m}

OS:Surface,
  {9949b6d8-ed35-4dba-94ae-e2d355502eac}, !- Handle
  Surface 15,                             !- Name
  Wall,                                   !- Surface Type
  ,                                       !- Construction Name
  {cfe767b8-aed1-4cd4-8edc-3a8d250b456a}, !- Space Name
  Surface,                                !- Outside Boundary Condition
  {190279f2-c12b-4790-88c9-2a04d88c96e0}, !- Outside Boundary Condition Object
  NoSun,                                  !- Sun Exposure
  NoWind,                                 !- Wind Exposure
  ,                                       !- View Factor to Ground
  ,                                       !- Number of Vertices
  6.46578440716979, 0, 2.4384,            !- X,Y,Z Vertex 1 {m}
  6.46578440716979, 0, 0,                 !- X,Y,Z Vertex 2 {m}
  6.46578440716979, -12.9315688143396, 0, !- X,Y,Z Vertex 3 {m}
  6.46578440716979, -12.9315688143396, 2.4384; !- X,Y,Z Vertex 4 {m}

OS:Surface,
  {0d0d62fa-8d57-4051-b96f-0fcd8534bd20}, !- Handle
  Surface 16,                             !- Name
  Wall,                                   !- Surface Type
  ,                                       !- Construction Name
  {cfe767b8-aed1-4cd4-8edc-3a8d250b456a}, !- Space Name
  Surface,                                !- Outside Boundary Condition
  {12eb9e26-3435-41bf-92f2-4057e623e56b}, !- Outside Boundary Condition Object
  NoSun,                                  !- Sun Exposure
  NoWind,                                 !- Wind Exposure
  ,                                       !- View Factor to Ground
  ,                                       !- Number of Vertices
  12.9315688143396, -12.9315688143396, 2.4384, !- X,Y,Z Vertex 1 {m}
  12.9315688143396, -12.9315688143396, 0, !- X,Y,Z Vertex 2 {m}
  12.9315688143396, 0, 0,                 !- X,Y,Z Vertex 3 {m}
  12.9315688143396, 0, 2.4384;            !- X,Y,Z Vertex 4 {m}

OS:Surface,
  {380cc33a-855f-40df-b8ad-3f32846ae65f}, !- Handle
  Surface 17,                             !- Name
  RoofCeiling,                            !- Surface Type
  ,                                       !- Construction Name
  {cfe767b8-aed1-4cd4-8edc-3a8d250b456a}, !- Space Name
  Surface,                                !- Outside Boundary Condition
  {71e14440-032f-4477-a8f4-4182c5b8d28b}, !- Outside Boundary Condition Object
  NoSun,                                  !- Sun Exposure
  NoWind,                                 !- Wind Exposure
  ,                                       !- View Factor to Ground
  ,                                       !- Number of Vertices
  12.9315688143396, -12.9315688143396, 2.4384, !- X,Y,Z Vertex 1 {m}
  12.9315688143396, 0, 2.4384,            !- X,Y,Z Vertex 2 {m}
  6.46578440716979, 0, 2.4384,            !- X,Y,Z Vertex 3 {m}
  6.46578440716979, -12.9315688143396, 2.4384; !- X,Y,Z Vertex 4 {m}

OS:ThermalZone,
  {853777ee-2ebd-415c-9226-347aa853d900}, !- Handle
  living zone|unit 3,                     !- Name
  ,                                       !- Multiplier
  ,                                       !- Ceiling Height {m}
  ,                                       !- Volume {m3}
  ,                                       !- Floor Area {m2}
  ,                                       !- Zone Inside Convection Algorithm
  ,                                       !- Zone Outside Convection Algorithm
  ,                                       !- Zone Conditioning Equipment List Name