!- NOTE: Auto-generated from /test/osw_files/SFA_4units_1story_CS_UA_3Beds_2Baths_Denver.osw

OS:Version,
  {2d1fca8c-2ff1-4376-b157-123b4890fe80}, !- Handle
  2.6.2;                                  !- Version Identifier

OS:Building,
  {7fb48aa4-d986-4740-9702-c975c26cb860}, !- Handle
  Building 1,                             !- Name
  ,                                       !- Building Sector Type
  0,                                      !- North Axis {deg}
  ,                                       !- Nominal Floor to Floor Height {m}
  ,                                       !- Space Type Name
  ,                                       !- Default Construction Set Name
  ,                                       !- Default Schedule Set Name
  1,                                      !- Standards Number of Stories
  1,                                      !- Standards Number of Above Ground Stories
  singlefamilyattached,                   !- Standards Building Type
  4;                                      !- Standards Number of Living Units

OS:Facility,
  {d1dee314-069e-4fcd-a1e7-e9c9060716d1}; !- Handle

OS:Site,
  {94ecc5e1-7c14-4ef9-bfd3-582c29dad2bc}, !- Handle
  Denver Intl Ap_CO_USA,                  !- Name
  39.83,                                  !- Latitude {deg}
  -104.65,                                !- Longitude {deg}
  -7,                                     !- Time Zone {hr}
  1650,                                   !- Elevation {m}
  ;                                       !- Terrain

OS:SimulationControl,
  {60479b91-2f3c-499b-93f4-314205dd745d}, !- Handle
  ,                                       !- Do Zone Sizing Calculation
  ,                                       !- Do System Sizing Calculation
  ,                                       !- Do Plant Sizing Calculation
  No;                                     !- Run Simulation for Sizing Periods

OS:Sizing:Parameters,
  {045073bb-3b69-4795-b637-750834d25504}, !- Handle
  1.25,                                   !- Heating Sizing Factor
  1.15;                                   !- Cooling Sizing Factor

OS:Timestep,
  {3b748a9b-84ae-4eee-88f8-e30763841e46}, !- Handle
  6;                                      !- Number of Timesteps per Hour

OS:ShadowCalculation,
  {79f34655-cea0-4209-ab63-f92855e4b996}, !- Handle
  20,                                     !- Calculation Frequency
  200;                                    !- Maximum Figures in Shadow Overlap Calculations

OS:HeatBalanceAlgorithm,
  {522aa5e7-5a0e-4879-88f2-60db9d7597d1}, !- Handle
  ConductionTransferFunction,             !- Algorithm
  200;                                    !- Surface Temperature Upper Limit {C}

OS:RunPeriod,
  {518783a7-54ad-4446-b93f-e684b4da4aba}, !- Handle
  Run Period 1,                           !- Name
  1,                                      !- Begin Month
  1,                                      !- Begin Day of Month
  12,                                     !- End Month
  31,                                     !- End Day of Month
  ,                                       !- Use Weather File Holidays and Special Days
  ,                                       !- Use Weather File Daylight Saving Period
  ,                                       !- Apply Weekend Holiday Rule
  ,                                       !- Use Weather File Rain Indicators
  ,                                       !- Use Weather File Snow Indicators
  ;                                       !- Number of Times Runperiod to be Repeated

OS:LifeCycleCost:Parameters,
  {154f47c5-4e93-4bb5-ab94-af6f100412a5}, !- Handle
  ,                                       !- Analysis Type
  ,                                       !- Discounting Convention
  ,                                       !- Inflation Approach
  ,                                       !- Real Discount Rate
  ,                                       !- Nominal Discount Rate
  ,                                       !- Inflation
  ,                                       !- Base Date Month
  ,                                       !- Base Date Year
  ,                                       !- Service Date Month
  ,                                       !- Service Date Year
  ;                                       !- Length of Study Period in Years

OS:SurfaceConvectionAlgorithm:Outside,
  {9d3e8045-461b-4bcf-85f8-f3f4418acc38}, !- Handle
  DOE-2;                                  !- Algorithm

OS:SurfaceConvectionAlgorithm:Inside,
  {db50b858-f329-4a45-8930-1291c51cc624}, !- Handle
  TARP;                                   !- Algorithm

OS:ZoneCapacitanceMultiplier:ResearchSpecial,
  {d2d69db4-3328-4bf8-afef-5b55a5666027}, !- Handle
  ,                                       !- Temperature Capacity Multiplier
  15,                                     !- Humidity Capacity Multiplier
  ;                                       !- Carbon Dioxide Capacity Multiplier

OS:ThermalZone,
  {25c1fa4c-d608-4b25-90e1-b6346091ea17}, !- Handle
  living zone,                            !- Name
  ,                                       !- Multiplier
  ,                                       !- Ceiling Height {m}
  ,                                       !- Volume {m3}
  ,                                       !- Floor Area {m2}
  ,                                       !- Zone Inside Convection Algorithm
  ,                                       !- Zone Outside Convection Algorithm
  ,                                       !- Zone Conditioning Equipment List Name
  {43371422-9b3c-405f-ab8f-e35bb405894a}, !- Zone Air Inlet Port List
  {17a14788-b30b-4637-9029-3e2cbd1cfe12}, !- Zone Air Exhaust Port List
  {66a60050-5095-40f8-820b-4ab38416031d}, !- Zone Air Node Name
  {aac3f6b3-7f86-4751-afdc-86b26b5a79f8}, !- Zone Return Air Port List
  ,                                       !- Primary Daylighting Control Name
  ,                                       !- Fraction of Zone Controlled by Primary Daylighting Control
  ,                                       !- Secondary Daylighting Control Name
  ,                                       !- Fraction of Zone Controlled by Secondary Daylighting Control
  ,                                       !- Illuminance Map Name
  ,                                       !- Group Rendering Name
  ,                                       !- Thermostat Name
  No;                                     !- Use Ideal Air Loads

OS:Node,
  {a3e0329f-ee36-4f9c-9780-7f1ecd6af0da}, !- Handle
  Node 1,                                 !- Name
  {66a60050-5095-40f8-820b-4ab38416031d}, !- Inlet Port
  ;                                       !- Outlet Port

OS:Connection,
  {66a60050-5095-40f8-820b-4ab38416031d}, !- Handle
  {f1e8f983-9966-4679-96f1-81114b5690ea}, !- Name
  {25c1fa4c-d608-4b25-90e1-b6346091ea17}, !- Source Object
  11,                                     !- Outlet Port
  {a3e0329f-ee36-4f9c-9780-7f1ecd6af0da}, !- Target Object
  2;                                      !- Inlet Port

OS:PortList,
  {43371422-9b3c-405f-ab8f-e35bb405894a}, !- Handle
  {b662cdd9-811d-404c-8f71-9103f9b6ed33}, !- Name
  {25c1fa4c-d608-4b25-90e1-b6346091ea17}; !- HVAC Component

OS:PortList,
  {17a14788-b30b-4637-9029-3e2cbd1cfe12}, !- Handle
  {71efeac3-ddd7-4b05-9e91-03af201931b0}, !- Name
  {25c1fa4c-d608-4b25-90e1-b6346091ea17}; !- HVAC Component

OS:PortList,
  {aac3f6b3-7f86-4751-afdc-86b26b5a79f8}, !- Handle
  {ee9d9a1b-c3ec-4af2-b837-2e7de180f0fd}, !- Name
  {25c1fa4c-d608-4b25-90e1-b6346091ea17}; !- HVAC Component

OS:Sizing:Zone,
  {ae5c982d-c3e7-4d46-aa33-0f0421a81565}, !- Handle
  {25c1fa4c-d608-4b25-90e1-b6346091ea17}, !- Zone or ZoneList Name
  SupplyAirTemperature,                   !- Zone Cooling Design Supply Air Temperature Input Method
  14,                                     !- Zone Cooling Design Supply Air Temperature {C}
  11.11,                                  !- Zone Cooling Design Supply Air Temperature Difference {deltaC}
  SupplyAirTemperature,                   !- Zone Heating Design Supply Air Temperature Input Method
  40,                                     !- Zone Heating Design Supply Air Temperature {C}
  11.11,                                  !- Zone Heating Design Supply Air Temperature Difference {deltaC}
  0.0085,                                 !- Zone Cooling Design Supply Air Humidity Ratio {kg-H2O/kg-air}
  0.008,                                  !- Zone Heating Design Supply Air Humidity Ratio {kg-H2O/kg-air}
  ,                                       !- Zone Heating Sizing Factor
  ,                                       !- Zone Cooling Sizing Factor
  DesignDay,                              !- Cooling Design Air Flow Method
  ,                                       !- Cooling Design Air Flow Rate {m3/s}
  ,                                       !- Cooling Minimum Air Flow per Zone Floor Area {m3/s-m2}
  ,                                       !- Cooling Minimum Air Flow {m3/s}
  ,                                       !- Cooling Minimum Air Flow Fraction
  DesignDay,                              !- Heating Design Air Flow Method
  ,                                       !- Heating Design Air Flow Rate {m3/s}
  ,                                       !- Heating Maximum Air Flow per Zone Floor Area {m3/s-m2}
  ,                                       !- Heating Maximum Air Flow {m3/s}
  ,                                       !- Heating Maximum Air Flow Fraction
  ,                                       !- Design Zone Air Distribution Effectiveness in Cooling Mode
  ,                                       !- Design Zone Air Distribution Effectiveness in Heating Mode
  No,                                     !- Account for Dedicated Outdoor Air System
  NeutralSupplyAir,                       !- Dedicated Outdoor Air System Control Strategy
  autosize,                               !- Dedicated Outdoor Air Low Setpoint Temperature for Design {C}
  autosize;                               !- Dedicated Outdoor Air High Setpoint Temperature for Design {C}

OS:ZoneHVAC:EquipmentList,
  {84d482bd-0acc-47dd-b05f-b0142319dc4f}, !- Handle
  Zone HVAC Equipment List 1,             !- Name
  {25c1fa4c-d608-4b25-90e1-b6346091ea17}; !- Thermal Zone

OS:Space,
  {98548b4b-af0e-42c3-8313-cdcb58ef8f76}, !- Handle
  living space,                           !- Name
  {46959e12-9b36-4b8f-a4f0-911fe5dda8e4}, !- Space Type Name
  ,                                       !- Default Construction Set Name
  ,                                       !- Default Schedule Set Name
  ,                                       !- Direction of Relative North {deg}
  ,                                       !- X Origin {m}
  ,                                       !- Y Origin {m}
  ,                                       !- Z Origin {m}
  ,                                       !- Building Story Name
  {25c1fa4c-d608-4b25-90e1-b6346091ea17}, !- Thermal Zone Name
  ,                                       !- Part of Total Floor Area
  ,                                       !- Design Specification Outdoor Air Object Name
  {3b687f60-195d-4f91-91e8-7452cbd7c5f3}; !- Building Unit Name

OS:Surface,
  {7bbee407-c73a-43e1-872f-e941d285d48f}, !- Handle
  Surface 1,                              !- Name
  Floor,                                  !- Surface Type
  ,                                       !- Construction Name
  {98548b4b-af0e-42c3-8313-cdcb58ef8f76}, !- Space Name
  Surface,                                !- Outside Boundary Condition
  {1ef2999c-96fa-4cb9-9a6b-2880de2655b6}, !- Outside Boundary Condition Object
  NoSun,                                  !- Sun Exposure
  NoWind,                                 !- Wind Exposure
  ,                                       !- View Factor to Ground
  ,                                       !- Number of Vertices
  0, -12.9315688143396, 0,                !- X,Y,Z Vertex 1 {m}
  0, 0, 0,                                !- X,Y,Z Vertex 2 {m}
  6.46578440716979, 0, 0,                 !- X,Y,Z Vertex 3 {m}
  6.46578440716979, -12.9315688143396, 0; !- X,Y,Z Vertex 4 {m}

OS:Surface,
  {ff53135f-4fc7-400b-8c80-9ce184473665}, !- Handle
  Surface 2,                              !- Name
  Wall,                                   !- Surface Type
  ,                                       !- Construction Name
  {98548b4b-af0e-42c3-8313-cdcb58ef8f76}, !- Space Name
  Outdoors,                               !- Outside Boundary Condition
  ,                                       !- Outside Boundary Condition Object
  SunExposed,                             !- Sun Exposure
  WindExposed,                            !- Wind Exposure
  ,                                       !- View Factor to Ground
  ,                                       !- Number of Vertices
  0, 0, 2.4384,                           !- X,Y,Z Vertex 1 {m}
  0, 0, 0,                                !- X,Y,Z Vertex 2 {m}
  0, -12.9315688143396, 0,                !- X,Y,Z Vertex 3 {m}
  0, -12.9315688143396, 2.4384;           !- X,Y,Z Vertex 4 {m}

OS:Surface,
  {2b8c631a-9d11-4237-a5a0-a1cfa998c26f}, !- Handle
  Surface 3,                              !- Name
  Wall,                                   !- Surface Type
  ,                                       !- Construction Name
  {98548b4b-af0e-42c3-8313-cdcb58ef8f76}, !- Space Name
  Outdoors,                               !- Outside Boundary Condition
  ,                                       !- Outside Boundary Condition Object
  SunExposed,                             !- Sun Exposure
  WindExposed,                            !- Wind Exposure
  ,                                       !- View Factor to Ground
  ,                                       !- Number of Vertices
  6.46578440716979, 0, 2.4384,            !- X,Y,Z Vertex 1 {m}
  6.46578440716979, 0, 0,                 !- X,Y,Z Vertex 2 {m}
  0, 0, 0,                                !- X,Y,Z Vertex 3 {m}
  0, 0, 2.4384;                           !- X,Y,Z Vertex 4 {m}

OS:Surface,
  {a6edae80-8342-40a1-85a4-de35f992042a}, !- Handle
  Surface 4,                              !- Name
  Wall,                                   !- Surface Type
  ,                                       !- Construction Name
  {98548b4b-af0e-42c3-8313-cdcb58ef8f76}, !- Space Name
  Surface,                                !- Outside Boundary Condition
  {bf0c5e22-26b2-48a2-ace4-9d98077bc535}, !- Outside Boundary Condition Object
  NoSun,                                  !- Sun Exposure
  NoWind,                                 !- Wind Exposure
  ,                                       !- View Factor to Ground
  ,                                       !- Number of Vertices
  6.46578440716979, -12.9315688143396, 2.4384, !- X,Y,Z Vertex 1 {m}
  6.46578440716979, -12.9315688143396, 0, !- X,Y,Z Vertex 2 {m}
  6.46578440716979, 0, 0,                 !- X,Y,Z Vertex 3 {m}
  6.46578440716979, 0, 2.4384;            !- X,Y,Z Vertex 4 {m}

OS:Surface,
  {1f9e2bcf-240c-4d71-b1e4-e28e10208620}, !- Handle
  Surface 5,                              !- Name
  Wall,                                   !- Surface Type
  ,                                       !- Construction Name
  {98548b4b-af0e-42c3-8313-cdcb58ef8f76}, !- Space Name
  Outdoors,                               !- Outside Boundary Condition
  ,                                       !- Outside Boundary Condition Object
  SunExposed,                             !- Sun Exposure
  WindExposed,                            !- Wind Exposure
  ,                                       !- View Factor to Ground
  ,                                       !- Number of Vertices
  0, -12.9315688143396, 2.4384,           !- X,Y,Z Vertex 1 {m}
  0, -12.9315688143396, 0,                !- X,Y,Z Vertex 2 {m}
  6.46578440716979, -12.9315688143396, 0, !- X,Y,Z Vertex 3 {m}
  6.46578440716979, -12.9315688143396, 2.4384; !- X,Y,Z Vertex 4 {m}

OS:Surface,
  {ec9ed793-4623-4f17-8745-8d3a76ffddbc}, !- Handle
  Surface 6,                              !- Name
  RoofCeiling,                            !- Surface Type
  ,                                       !- Construction Name
  {98548b4b-af0e-42c3-8313-cdcb58ef8f76}, !- Space Name
  Surface,                                !- Outside Boundary Condition
  {2e953703-0f04-4269-ac4b-11010afdf5fd}, !- Outside Boundary Condition Object
  NoSun,                                  !- Sun Exposure
  NoWind,                                 !- Wind Exposure
  ,                                       !- View Factor to Ground
  ,                                       !- Number of Vertices
  6.46578440716979, -12.9315688143396, 2.4384, !- X,Y,Z Vertex 1 {m}
  6.46578440716979, 0, 2.4384,            !- X,Y,Z Vertex 2 {m}
  0, 0, 2.4384,                           !- X,Y,Z Vertex 3 {m}
  0, -12.9315688143396, 2.4384;           !- X,Y,Z Vertex 4 {m}

OS:SpaceType,
  {46959e12-9b36-4b8f-a4f0-911fe5dda8e4}, !- Handle
  Space Type 1,                           !- Name
  ,                                       !- Default Construction Set Name
  ,                                       !- Default Schedule Set Name
  ,                                       !- Group Rendering Name
  ,                                       !- Design Specification Outdoor Air Object Name
  ,                                       !- Standards Building Type
  living;                                 !- Standards Space Type

OS:ThermalZone,
  {c006e70a-1b0d-4117-8f64-36a7e1fcdf3d}, !- Handle
  living zone|unit 2,                     !- Name
  ,                                       !- Multiplier
  ,                                       !- Ceiling Height {m}
  ,                                       !- Volume {m3}
  ,                                       !- Floor Area {m2}
  ,                                       !- Zone Inside Convection Algorithm
  ,                                       !- Zone Outside Convection Algorithm
  ,                                       !- Zone Conditioning Equipment List Name
  {d9e4c29c-b545-4715-95f3-fd379ca62a85}, !- Zone Air Inlet Port List
  {4f40915c-f527-4039-bfac-ad2346041dc8}, !- Zone Air Exhaust Port List
  {80f145c2-399d-468c-a2bb-a0474cd30a85}, !- Zone Air Node Name
  {be2eb0cc-6503-47f6-827b-fa44706ca50f}, !- Zone Return Air Port List
  ,                                       !- Primary Daylighting Control Name
  ,                                       !- Fraction of Zone Controlled by Primary Daylighting Control
  ,                                       !- Secondary Daylighting Control Name
  ,                                       !- Fraction of Zone Controlled by Secondary Daylighting Control
  ,                                       !- Illuminance Map Name
  ,                                       !- Group Rendering Name
  ,                                       !- Thermostat Name
  No;                                     !- Use Ideal Air Loads

OS:Node,
  {10f54ab4-b044-4044-b9c5-2793dad6dfb0}, !- Handle
  Node 2,                                 !- Name
  {80f145c2-399d-468c-a2bb-a0474cd30a85}, !- Inlet Port
  ;                                       !- Outlet Port

OS:Connection,
  {80f145c2-399d-468c-a2bb-a0474cd30a85}, !- Handle
  {03ffa9d7-c9e1-44bb-a274-6572bd2035b9}, !- Name
  {c006e70a-1b0d-4117-8f64-36a7e1fcdf3d}, !- Source Object
  11,                                     !- Outlet Port
  {10f54ab4-b044-4044-b9c5-2793dad6dfb0}, !- Target Object
  2;                                      !- Inlet Port

OS:PortList,
  {d9e4c29c-b545-4715-95f3-fd379ca62a85}, !- Handle
  {887df02a-92c4-4b00-820d-3d19e2f3e65b}, !- Name
  {c006e70a-1b0d-4117-8f64-36a7e1fcdf3d}; !- HVAC Component

OS:PortList,
  {4f40915c-f527-4039-bfac-ad2346041dc8}, !- Handle
  {470a300e-9278-4086-84f2-33f13abbfec9}, !- Name
  {c006e70a-1b0d-4117-8f64-36a7e1fcdf3d}; !- HVAC Component

OS:PortList,
  {be2eb0cc-6503-47f6-827b-fa44706ca50f}, !- Handle
  {2f6483b6-c914-4e86-9f6a-f69a8c19c136}, !- Name
  {c006e70a-1b0d-4117-8f64-36a7e1fcdf3d}; !- HVAC Component

OS:Sizing:Zone,
  {c1f54560-6c48-4d28-b9b6-b187ca3d79ef}, !- Handle
  {c006e70a-1b0d-4117-8f64-36a7e1fcdf3d}, !- Zone or ZoneList Name
  SupplyAirTemperature,                   !- Zone Cooling Design Supply Air Temperature Input Method
  14,                                     !- Zone Cooling Design Supply Air Temperature {C}
  11.11,                                  !- Zone Cooling Design Supply Air Temperature Difference {deltaC}
  SupplyAirTemperature,                   !- Zone Heating Design Supply Air Temperature Input Method
  40,                                     !- Zone Heating Design Supply Air Temperature {C}
  11.11,                                  !- Zone Heating Design Supply Air Temperature Difference {deltaC}
  0.0085,                                 !- Zone Cooling Design Supply Air Humidity Ratio {kg-H2O/kg-air}
  0.008,                                  !- Zone Heating Design Supply Air Humidity Ratio {kg-H2O/kg-air}
  ,                                       !- Zone Heating Sizing Factor
  ,                                       !- Zone Cooling Sizing Factor
  DesignDay,                              !- Cooling Design Air Flow Method
  ,                                       !- Cooling Design Air Flow Rate {m3/s}
  ,                                       !- Cooling Minimum Air Flow per Zone Floor Area {m3/s-m2}
  ,                                       !- Cooling Minimum Air Flow {m3/s}
  ,                                       !- Cooling Minimum Air Flow Fraction
  DesignDay,                              !- Heating Design Air Flow Method
  ,                                       !- Heating Design Air Flow Rate {m3/s}
  ,                                       !- Heating Maximum Air Flow per Zone Floor Area {m3/s-m2}
  ,                                       !- Heating Maximum Air Flow {m3/s}
  ,                                       !- Heating Maximum Air Flow Fraction
  ,                                       !- Design Zone Air Distribution Effectiveness in Cooling Mode
  ,                                       !- Design Zone Air Distribution Effectiveness in Heating Mode
  No,                                     !- Account for Dedicated Outdoor Air System
  NeutralSupplyAir,                       !- Dedicated Outdoor Air System Control Strategy
  autosize,                               !- Dedicated Outdoor Air Low Setpoint Temperature for Design {C}
  autosize;                               !- Dedicated Outdoor Air High Setpoint Temperature for Design {C}

OS:ZoneHVAC:EquipmentList,
  {aae0c39f-c96e-476b-ac1e-0c05b848abaa}, !- Handle
  Zone HVAC Equipment List 2,             !- Name
  {c006e70a-1b0d-4117-8f64-36a7e1fcdf3d}; !- Thermal Zone

OS:Space,
  {3290a359-194c-47ad-a64e-4ee9932043e6}, !- Handle
  living space|unit 2|story 1,            !- Name
  {46959e12-9b36-4b8f-a4f0-911fe5dda8e4}, !- Space Type Name
  ,                                       !- Default Construction Set Name
  ,                                       !- Default Schedule Set Name
  -0,                                     !- Direction of Relative North {deg}
  0,                                      !- X Origin {m}
  0,                                      !- Y Origin {m}
  0,                                      !- Z Origin {m}
  ,                                       !- Building Story Name
  {c006e70a-1b0d-4117-8f64-36a7e1fcdf3d}, !- Thermal Zone Name
  ,                                       !- Part of Total Floor Area
  ,                                       !- Design Specification Outdoor Air Object Name
  {53d97e18-2430-40d5-88c6-c50b93865cac}; !- Building Unit Name

OS:Surface,
  {2b85a8a5-62d1-4303-a70d-02b1a32942ee}, !- Handle
  Surface 12,                             !- Name
  RoofCeiling,                            !- Surface Type
  ,                                       !- Construction Name
  {3290a359-194c-47ad-a64e-4ee9932043e6}, !- Space Name
  Surface,                                !- Outside Boundary Condition
  {3fc68fef-0753-432a-a5df-0f778b019285}, !- Outside Boundary Condition Object
  NoSun,                                  !- Sun Exposure
  NoWind,                                 !- Wind Exposure
  ,                                       !- View Factor to Ground
  ,                                       !- Number of Vertices
  12.9315688143396, -12.9315688143396, 2.4384, !- X,Y,Z Vertex 1 {m}
  12.9315688143396, 0, 2.4384,            !- X,Y,Z Vertex 2 {m}
  6.46578440716979, 0, 2.4384,            !- X,Y,Z Vertex 3 {m}
  6.46578440716979, -12.9315688143396, 2.4384; !- X,Y,Z Vertex 4 {m}

OS:Surface,
  {4880064e-b28f-4f28-913f-2d948ed72710}, !- Handle
  Surface 13,                             !- Name
  Floor,                                  !- Surface Type
  ,                                       !- Construction Name
  {3290a359-194c-47ad-a64e-4ee9932043e6}, !- Space Name
  Surface,                                !- Outside Boundary Condition
  {a421bbe3-bcb4-48cb-a4c0-69020e1a26b8}, !- Outside Boundary Condition Object
  NoSun,                                  !- Sun Exposure
  NoWind,                                 !- Wind Exposure
  ,                                       !- View Factor to Ground
  ,                                       !- Number of Vertices
  6.46578440716979, -12.9315688143396, 0, !- X,Y,Z Vertex 1 {m}
  6.46578440716979, 0, 0,                 !- X,Y,Z Vertex 2 {m}
  12.9315688143396, 0, 0,                 !- X,Y,Z Vertex 3 {m}
  12.9315688143396, -12.9315688143396, 0; !- X,Y,Z Vertex 4 {m}

OS:Surface,
  {78e62e03-f60d-4b44-b0dd-cc19430f357d}, !- Handle
  Surface 14,                             !- Name
  Wall,                                   !- Surface Type
  ,                                       !- Construction Name
  {3290a359-194c-47ad-a64e-4ee9932043e6}, !- Space Name
  Outdoors,                               !- Outside Boundary Condition
  ,                                       !- Outside Boundary Condition Object
  SunExposed,                             !- Sun Exposure
  WindExposed,                            !- Wind Exposure
  ,                                       !- View Factor to Ground
  ,                                       !- Number of Vertices
  6.46578440716979, -12.9315688143396, 2.4384, !- X,Y,Z Vertex 1 {m}
  6.46578440716979, -12.9315688143396, 0, !- X,Y,Z Vertex 2 {m}
  12.9315688143396, -12.9315688143396, 0, !- X,Y,Z Vertex 3 {m}
  12.9315688143396, -12.9315688143396, 2.4384; !- X,Y,Z Vertex 4 {m}

OS:Surface,
  {bf0c5e22-26b2-48a2-ace4-9d98077bc535}, !- Handle
  Surface 15,                             !- Name
  Wall,                                   !- Surface Type
  ,                                       !- Construction Name
  {3290a359-194c-47ad-a64e-4ee9932043e6}, !- Space Name
  Surface,                                !- Outside Boundary Condition
  {a6edae80-8342-40a1-85a4-de35f992042a}, !- Outside Boundary Condition Object
  NoSun,                                  !- Sun Exposure
  NoWind,                                 !- Wind Exposure
  ,                                       !- View Factor to Ground
  ,                                       !- Number of Vertices
  6.46578440716979, 0, 2.4384,            !- X,Y,Z Vertex 1 {m}
  6.46578440716979, 0, 0,                 !- X,Y,Z Vertex 2 {m}
  6.46578440716979, -12.9315688143396, 0, !- X,Y,Z Vertex 3 {m}
  6.46578440716979, -12.9315688143396, 2.4384; !- X,Y,Z Vertex 4 {m}

OS:Surface,
  {312b3c11-1684-4b26-81ba-f690b2685348}, !- Handle
  Surface 16,                             !- Name
  Wall,                                   !- Surface Type
  ,                                       !- Construction Name
  {3290a359-194c-47ad-a64e-4ee9932043e6}, !- Space Name
  Surface,                                !- Outside Boundary Condition
  {a714df53-0177-4a5b-a4fb-320c549e0d0c}, !- Outside Boundary Condition Object
  NoSun,                                  !- Sun Exposure
  NoWind,                                 !- Wind Exposure
  ,                                       !- View Factor to Ground
  ,                                       !- Number of Vertices
  12.9315688143396, -12.9315688143396, 2.4384, !- X,Y,Z Vertex 1 {m}
  12.9315688143396, -12.9315688143396, 0, !- X,Y,Z Vertex 2 {m}
  12.9315688143396, 0, 0,                 !- X,Y,Z Vertex 3 {m}
  12.9315688143396, 0, 2.4384;            !- X,Y,Z Vertex 4 {m}

OS:Surface,
  {0e93d06c-8889-4829-890e-3eae99106dca}, !- Handle
  Surface 17,                             !- Name
  Wall,                                   !- Surface Type
  ,                                       !- Construction Name
  {3290a359-194c-47ad-a64e-4ee9932043e6}, !- Space Name
  Outdoors,                               !- Outside Boundary Condition
  ,                                       !- Outside Boundary Condition Object
  SunExposed,                             !- Sun Exposure
  WindExposed,                            !- Wind Exposure
  ,                                       !- View Factor to Ground
  ,                                       !- Number of Vertices
  12.9315688143396, 0, 2.4384,            !- X,Y,Z Vertex 1 {m}
  12.9315688143396, 0, 0,                 !- X,Y,Z Vertex 2 {m}
  6.46578440716979, 0, 0,                 !- X,Y,Z Vertex 3 {m}
  6.46578440716979, 0, 2.4384;            !- X,Y,Z Vertex 4 {m}

OS:ThermalZone,
  {5d00754b-4404-4c59-87e1-9e4e2cb3c20b}, !- Handle
  living zone|unit 3,                     !- Name
  ,                                       !- Multiplier
  ,                                       !- Ceiling Height {m}
  ,                                       !- Volume {m3}
  ,                                       !- Floor Area {m2}
  ,                                       !- Zone Inside Convection Algorithm
  ,                                       !- Zone Outside Convection Algorithm
  ,                                       !- Zone Conditioning Equipment List Name