!- NOTE: Auto-generated from /test/osw_files/SFA_4units_1story_SL_UA_3Beds_2Baths_Denver_ASHP.osw

OS:Version,
  {70b6b3b8-6a05-4d37-a365-07faf7e73456}, !- Handle
  2.5.1;                                  !- Version Identifier

OS:Building,
  {058d1dff-5e85-4dc5-a2d9-08220459454e}, !- Handle
  Building 1,                             !- Name
  ,                                       !- Building Sector Type
  0,                                      !- North Axis {deg}
  ,                                       !- Nominal Floor to Floor Height {m}
  ,                                       !- Space Type Name
  ,                                       !- Default Construction Set Name
  ,                                       !- Default Schedule Set Name
  1,                                      !- Standards Number of Stories
  1,                                      !- Standards Number of Above Ground Stories
  singlefamilyattached,                   !- Standards Building Type
  4;                                      !- Standards Number of Living Units

OS:Facility,
  {ae191bab-852c-401a-b76c-a432e6545e8e}; !- Handle

OS:Site,
  {6d719686-5636-49b1-9c22-7650ef71f03a}, !- Handle
  Denver Intl Ap_CO_USA,                  !- Name
  39.83,                                  !- Latitude {deg}
  -104.65,                                !- Longitude {deg}
  -7,                                     !- Time Zone {hr}
  1650,                                   !- Elevation {m}
  ;                                       !- Terrain

OS:SimulationControl,
  {da773be2-b2d4-44de-aa20-dd10a184b53b}, !- Handle
  ,                                       !- Do Zone Sizing Calculation
  ,                                       !- Do System Sizing Calculation
  ,                                       !- Do Plant Sizing Calculation
  No;                                     !- Run Simulation for Sizing Periods

OS:Sizing:Parameters,
  {df90a583-0eb2-4034-b67a-47c1d5f25ef4}, !- Handle
  1.25,                                   !- Heating Sizing Factor
  1.15;                                   !- Cooling Sizing Factor

OS:Timestep,
  {60d8eea8-d69d-4afc-bf70-453c7ef15c07}, !- Handle
  6;                                      !- Number of Timesteps per Hour

OS:ShadowCalculation,
  {0e9de0c5-9217-4d32-b34e-bf8a45395ffe}, !- Handle
  20,                                     !- Calculation Frequency
  200;                                    !- Maximum Figures in Shadow Overlap Calculations

OS:HeatBalanceAlgorithm,
  {2833fa79-d42e-4917-b4d0-bf6aa3cad382}, !- Handle
  ConductionTransferFunction,             !- Algorithm
  200;                                    !- Surface Temperature Upper Limit {C}

OS:RunPeriod,
  {4d966e5c-0042-42dd-a07c-7b30e189b735}, !- Handle
  Run Period 1,                           !- Name
  1,                                      !- Begin Month
  1,                                      !- Begin Day of Month
  12,                                     !- End Month
  31,                                     !- End Day of Month
  ,                                       !- Use Weather File Holidays and Special Days
  ,                                       !- Use Weather File Daylight Saving Period
  ,                                       !- Apply Weekend Holiday Rule
  ,                                       !- Use Weather File Rain Indicators
  ,                                       !- Use Weather File Snow Indicators
  ;                                       !- Number of Times Runperiod to be Repeated

OS:LifeCycleCost:Parameters,
  {e69d6a2b-3e78-43ea-870c-d914736a7ea6}, !- Handle
  ,                                       !- Analysis Type
  ,                                       !- Discounting Convention
  ,                                       !- Inflation Approach
  ,                                       !- Real Discount Rate
  ,                                       !- Nominal Discount Rate
  ,                                       !- Inflation
  ,                                       !- Base Date Month
  ,                                       !- Base Date Year
  ,                                       !- Service Date Month
  ,                                       !- Service Date Year
  ;                                       !- Length of Study Period in Years

OS:ThermalZone,
  {72389d23-acd2-4aa4-b33d-d245d3db9584}, !- Handle
  living zone,                            !- Name
  ,                                       !- Multiplier
  ,                                       !- Ceiling Height {m}
  ,                                       !- Volume {m3}
  ,                                       !- Floor Area {m2}
  ,                                       !- Zone Inside Convection Algorithm
  ,                                       !- Zone Outside Convection Algorithm
  ,                                       !- Zone Conditioning Equipment List Name
  {fb2e862a-19d5-4663-a1ff-4900854dc016}, !- Zone Air Inlet Port List
  {9b3bccc1-def1-434d-a9d9-e7d2dc75e3f3}, !- Zone Air Exhaust Port List
  {364ef6f2-6f7b-403f-8bfc-d2e35415fc23}, !- Zone Air Node Name
  {011e0f2c-2a5f-4ec4-b47a-825d3612770c}, !- Zone Return Air Node Name
  ,                                       !- Primary Daylighting Control Name
  ,                                       !- Fraction of Zone Controlled by Primary Daylighting Control
  ,                                       !- Secondary Daylighting Control Name
  ,                                       !- Fraction of Zone Controlled by Secondary Daylighting Control
  ,                                       !- Illuminance Map Name
  ,                                       !- Group Rendering Name
  {ba5f6cdb-cef0-4a4e-a33f-b325a51e4c5f}, !- Thermostat Name
  No;                                     !- Use Ideal Air Loads

OS:Node,
  {18a0767a-74af-4556-86d1-d10e30b8dae8}, !- Handle
  Node 1,                                 !- Name
  {364ef6f2-6f7b-403f-8bfc-d2e35415fc23}, !- Inlet Port
  ;                                       !- Outlet Port

OS:Connection,
  {364ef6f2-6f7b-403f-8bfc-d2e35415fc23}, !- Handle
  {4c79acf6-c0db-41ad-998a-18dc00a134ad}, !- Name
  {72389d23-acd2-4aa4-b33d-d245d3db9584}, !- Source Object
  11,                                     !- Outlet Port
  {18a0767a-74af-4556-86d1-d10e30b8dae8}, !- Target Object
  2;                                      !- Inlet Port

OS:PortList,
  {fb2e862a-19d5-4663-a1ff-4900854dc016}, !- Handle
  {a5fbb290-3f86-4570-b769-fcf9d1e0ed4e}, !- Name
  {72389d23-acd2-4aa4-b33d-d245d3db9584}, !- HVAC Component
  {82fd26ad-7e0c-4417-b0bf-a4c35f155ba1}; !- Port 1

OS:PortList,
  {9b3bccc1-def1-434d-a9d9-e7d2dc75e3f3}, !- Handle
  {94060f5b-a6f3-4351-b9ab-b666a284065a}, !- Name
  {72389d23-acd2-4aa4-b33d-d245d3db9584}; !- HVAC Component

OS:Sizing:Zone,
  {8d4a00a0-135c-4c3f-98ae-72397617749d}, !- Handle
  {72389d23-acd2-4aa4-b33d-d245d3db9584}, !- Zone or ZoneList Name
  SupplyAirTemperature,                   !- Zone Cooling Design Supply Air Temperature Input Method
  14,                                     !- Zone Cooling Design Supply Air Temperature {C}
  11.11,                                  !- Zone Cooling Design Supply Air Temperature Difference {deltaC}
  SupplyAirTemperature,                   !- Zone Heating Design Supply Air Temperature Input Method
  40,                                     !- Zone Heating Design Supply Air Temperature {C}
  11.11,                                  !- Zone Heating Design Supply Air Temperature Difference {deltaC}
  0.0085,                                 !- Zone Cooling Design Supply Air Humidity Ratio {kg-H2O/kg-air}
  0.008,                                  !- Zone Heating Design Supply Air Humidity Ratio {kg-H2O/kg-air}
  ,                                       !- Zone Heating Sizing Factor
  ,                                       !- Zone Cooling Sizing Factor
  DesignDay,                              !- Cooling Design Air Flow Method
  ,                                       !- Cooling Design Air Flow Rate {m3/s}
  ,                                       !- Cooling Minimum Air Flow per Zone Floor Area {m3/s-m2}
  ,                                       !- Cooling Minimum Air Flow {m3/s}
  ,                                       !- Cooling Minimum Air Flow Fraction
  DesignDay,                              !- Heating Design Air Flow Method
  ,                                       !- Heating Design Air Flow Rate {m3/s}
  ,                                       !- Heating Maximum Air Flow per Zone Floor Area {m3/s-m2}
  ,                                       !- Heating Maximum Air Flow {m3/s}
  ,                                       !- Heating Maximum Air Flow Fraction
  ,                                       !- Design Zone Air Distribution Effectiveness in Cooling Mode
  ,                                       !- Design Zone Air Distribution Effectiveness in Heating Mode
  No,                                     !- Account for Dedicated Outdoor Air System
  NeutralSupplyAir,                       !- Dedicated Outdoor Air System Control Strategy
  autosize,                               !- Dedicated Outdoor Air Low Setpoint Temperature for Design {C}
  autosize;                               !- Dedicated Outdoor Air High Setpoint Temperature for Design {C}

OS:ZoneHVAC:EquipmentList,
  {0d7fc0c5-90be-4e6b-b6f7-4394f9c28b04}, !- Handle
  Zone HVAC Equipment List 1,             !- Name
  {72389d23-acd2-4aa4-b33d-d245d3db9584}, !- Thermal Zone
  {91ae2ca5-acef-46a0-9a06-3ab5b858da2c}, !- Zone Equipment 1
  1,                                      !- Zone Equipment Cooling Sequence 1
  1;                                      !- Zone Equipment Heating or No-Load Sequence 1

OS:Space,
  {adee9336-57bf-452d-a3c4-3c15a8533d32}, !- Handle
  living space,                           !- Name
  {3611f49a-ffe7-45de-86ab-541006303b91}, !- Space Type Name
  ,                                       !- Default Construction Set Name
  ,                                       !- Default Schedule Set Name
  ,                                       !- Direction of Relative North {deg}
  ,                                       !- X Origin {m}
  ,                                       !- Y Origin {m}
  ,                                       !- Z Origin {m}
  ,                                       !- Building Story Name
  {72389d23-acd2-4aa4-b33d-d245d3db9584}, !- Thermal Zone Name
  ,                                       !- Part of Total Floor Area
  ,                                       !- Design Specification Outdoor Air Object Name
  {be3304d3-3d34-40bd-87c5-db5199e8bcb5}; !- Building Unit Name

OS:Surface,
  {1e25f644-0312-45f6-b6c0-3409705dd284}, !- Handle
  Surface 1,                              !- Name
  Floor,                                  !- Surface Type
  ,                                       !- Construction Name
  {adee9336-57bf-452d-a3c4-3c15a8533d32}, !- Space Name
  Foundation,                             !- Outside Boundary Condition
  ,                                       !- Outside Boundary Condition Object
  NoSun,                                  !- Sun Exposure
  NoWind,                                 !- Wind Exposure
  ,                                       !- View Factor to Ground
  ,                                       !- Number of Vertices
  0, -12.9315688143396, 0,                !- X,Y,Z Vertex 1 {m}
  0, 0, 0,                                !- X,Y,Z Vertex 2 {m}
  6.46578440716979, 0, 0,                 !- X,Y,Z Vertex 3 {m}
  6.46578440716979, -12.9315688143396, 0; !- X,Y,Z Vertex 4 {m}

OS:Surface,
  {5f1a9efb-0ee5-4aed-b5f4-37708788a2f7}, !- Handle
  Surface 2,                              !- Name
  Wall,                                   !- Surface Type
  ,                                       !- Construction Name
  {adee9336-57bf-452d-a3c4-3c15a8533d32}, !- Space Name
  Outdoors,                               !- Outside Boundary Condition
  ,                                       !- Outside Boundary Condition Object
  SunExposed,                             !- Sun Exposure
  WindExposed,                            !- Wind Exposure
  ,                                       !- View Factor to Ground
  ,                                       !- Number of Vertices
  0, 0, 2.4384,                           !- X,Y,Z Vertex 1 {m}
  0, 0, 0,                                !- X,Y,Z Vertex 2 {m}
  0, -12.9315688143396, 0,                !- X,Y,Z Vertex 3 {m}
  0, -12.9315688143396, 2.4384;           !- X,Y,Z Vertex 4 {m}

OS:Surface,
  {4c1cb279-8316-4c67-88d5-2c24a1d54e29}, !- Handle
  Surface 3,                              !- Name
  Wall,                                   !- Surface Type
  ,                                       !- Construction Name
  {adee9336-57bf-452d-a3c4-3c15a8533d32}, !- Space Name
  Outdoors,                               !- Outside Boundary Condition
  ,                                       !- Outside Boundary Condition Object
  SunExposed,                             !- Sun Exposure
  WindExposed,                            !- Wind Exposure
  ,                                       !- View Factor to Ground
  ,                                       !- Number of Vertices
  6.46578440716979, 0, 2.4384,            !- X,Y,Z Vertex 1 {m}
  6.46578440716979, 0, 0,                 !- X,Y,Z Vertex 2 {m}
  0, 0, 0,                                !- X,Y,Z Vertex 3 {m}
  0, 0, 2.4384;                           !- X,Y,Z Vertex 4 {m}

OS:Surface,
  {2d31548d-b16e-4edc-8cfd-c95cc63388c2}, !- Handle
  Surface 4,                              !- Name
  Wall,                                   !- Surface Type
  ,                                       !- Construction Name
  {adee9336-57bf-452d-a3c4-3c15a8533d32}, !- Space Name
  Surface,                                !- Outside Boundary Condition
  {d69d26b7-da64-4b7c-9b3d-b5c4abd274fa}, !- Outside Boundary Condition Object
  NoSun,                                  !- Sun Exposure
  NoWind,                                 !- Wind Exposure
  ,                                       !- View Factor to Ground
  ,                                       !- Number of Vertices
  6.46578440716979, -12.9315688143396, 2.4384, !- X,Y,Z Vertex 1 {m}
  6.46578440716979, -12.9315688143396, 0, !- X,Y,Z Vertex 2 {m}
  6.46578440716979, 0, 0,                 !- X,Y,Z Vertex 3 {m}
  6.46578440716979, 0, 2.4384;            !- X,Y,Z Vertex 4 {m}

OS:Surface,
  {d33d85fe-4299-453b-8eb8-3b01c12fc426}, !- Handle
  Surface 5,                              !- Name
  Wall,                                   !- Surface Type
  ,                                       !- Construction Name
  {adee9336-57bf-452d-a3c4-3c15a8533d32}, !- Space Name
  Outdoors,                               !- Outside Boundary Condition
  ,                                       !- Outside Boundary Condition Object
  SunExposed,                             !- Sun Exposure
  WindExposed,                            !- Wind Exposure
  ,                                       !- View Factor to Ground
  ,                                       !- Number of Vertices
  0, -12.9315688143396, 2.4384,           !- X,Y,Z Vertex 1 {m}
  0, -12.9315688143396, 0,                !- X,Y,Z Vertex 2 {m}
  6.46578440716979, -12.9315688143396, 0, !- X,Y,Z Vertex 3 {m}
  6.46578440716979, -12.9315688143396, 2.4384; !- X,Y,Z Vertex 4 {m}

OS:Surface,
  {7d6824e5-a944-4a05-bf4f-1146c60f35d2}, !- Handle
  Surface 6,                              !- Name
  RoofCeiling,                            !- Surface Type
  ,                                       !- Construction Name
  {adee9336-57bf-452d-a3c4-3c15a8533d32}, !- Space Name
  Surface,                                !- Outside Boundary Condition
  {659631cd-cbbc-440f-9896-15eae1e05c5d}, !- Outside Boundary Condition Object
  NoSun,                                  !- Sun Exposure
  NoWind,                                 !- Wind Exposure
  ,                                       !- View Factor to Ground
  ,                                       !- Number of Vertices
  6.46578440716979, -12.9315688143396, 2.4384, !- X,Y,Z Vertex 1 {m}
  6.46578440716979, 0, 2.4384,            !- X,Y,Z Vertex 2 {m}
  0, 0, 2.4384,                           !- X,Y,Z Vertex 3 {m}
  0, -12.9315688143396, 2.4384;           !- X,Y,Z Vertex 4 {m}

OS:SpaceType,
  {3611f49a-ffe7-45de-86ab-541006303b91}, !- Handle
  Space Type 1,                           !- Name
  ,                                       !- Default Construction Set Name
  ,                                       !- Default Schedule Set Name
  ,                                       !- Group Rendering Name
  ,                                       !- Design Specification Outdoor Air Object Name
  ,                                       !- Standards Building Type
  living;                                 !- Standards Space Type

OS:ThermalZone,
  {db9726f6-8ffc-450f-87d7-e2e53e7b3da5}, !- Handle
  living zone|unit 2,                     !- Name
  ,                                       !- Multiplier
  ,                                       !- Ceiling Height {m}
  ,                                       !- Volume {m3}
  ,                                       !- Floor Area {m2}
  ,                                       !- Zone Inside Convection Algorithm
  ,                                       !- Zone Outside Convection Algorithm
  ,                                       !- Zone Conditioning Equipment List Name
  {79a0b0b1-ac2d-42fa-b5f4-6582573a2ed3}, !- Zone Air Inlet Port List
  {b45111ea-77d1-4635-9c03-de58bfe6a4ac}, !- Zone Air Exhaust Port List
  {9baa2155-f9a4-4be5-a2db-5b8d111a83bb}, !- Zone Air Node Name
  {d3cf19af-258d-4fb1-aa84-0485789a8bfe}, !- Zone Return Air Node Name
  ,                                       !- Primary Daylighting Control Name
  ,                                       !- Fraction of Zone Controlled by Primary Daylighting Control
  ,                                       !- Secondary Daylighting Control Name
  ,                                       !- Fraction of Zone Controlled by Secondary Daylighting Control
  ,                                       !- Illuminance Map Name
  ,                                       !- Group Rendering Name
  {cdee6e80-68aa-4566-a65b-1b966dfd3319}, !- Thermostat Name
  No;                                     !- Use Ideal Air Loads

OS:Node,
  {97719b18-991f-4241-88d1-40f2822cf36e}, !- Handle
  Node 2,                                 !- Name
  {9baa2155-f9a4-4be5-a2db-5b8d111a83bb}, !- Inlet Port
  ;                                       !- Outlet Port

OS:Connection,
  {9baa2155-f9a4-4be5-a2db-5b8d111a83bb}, !- Handle
  {60c96d18-cf82-4856-a429-528568ae2b0b}, !- Name
  {db9726f6-8ffc-450f-87d7-e2e53e7b3da5}, !- Source Object
  11,                                     !- Outlet Port
  {97719b18-991f-4241-88d1-40f2822cf36e}, !- Target Object
  2;                                      !- Inlet Port

OS:PortList,
  {79a0b0b1-ac2d-42fa-b5f4-6582573a2ed3}, !- Handle
  {720254ca-7167-404e-bb57-2a7c8145bcd7}, !- Name
  {db9726f6-8ffc-450f-87d7-e2e53e7b3da5}, !- HVAC Component
  {05b88f1e-0a88-4966-b2cf-b9b195eb49da}; !- Port 1

OS:PortList,
  {b45111ea-77d1-4635-9c03-de58bfe6a4ac}, !- Handle
  {186c7acb-32d1-4c3f-8796-c691a5fa1ace}, !- Name
  {db9726f6-8ffc-450f-87d7-e2e53e7b3da5}; !- HVAC Component

OS:Sizing:Zone,
  {f8c8b173-21a3-4ea4-a541-92e3b1c41fc4}, !- Handle
  {db9726f6-8ffc-450f-87d7-e2e53e7b3da5}, !- Zone or ZoneList Name
  SupplyAirTemperature,                   !- Zone Cooling Design Supply Air Temperature Input Method
  14,                                     !- Zone Cooling Design Supply Air Temperature {C}
  11.11,                                  !- Zone Cooling Design Supply Air Temperature Difference {deltaC}
  SupplyAirTemperature,                   !- Zone Heating Design Supply Air Temperature Input Method
  40,                                     !- Zone Heating Design Supply Air Temperature {C}
  11.11,                                  !- Zone Heating Design Supply Air Temperature Difference {deltaC}
  0.0085,                                 !- Zone Cooling Design Supply Air Humidity Ratio {kg-H2O/kg-air}
  0.008,                                  !- Zone Heating Design Supply Air Humidity Ratio {kg-H2O/kg-air}
  ,                                       !- Zone Heating Sizing Factor
  ,                                       !- Zone Cooling Sizing Factor
  DesignDay,                              !- Cooling Design Air Flow Method
  ,                                       !- Cooling Design Air Flow Rate {m3/s}
  ,                                       !- Cooling Minimum Air Flow per Zone Floor Area {m3/s-m2}
  ,                                       !- Cooling Minimum Air Flow {m3/s}
  ,                                       !- Cooling Minimum Air Flow Fraction
  DesignDay,                              !- Heating Design Air Flow Method
  ,                                       !- Heating Design Air Flow Rate {m3/s}
  ,                                       !- Heating Maximum Air Flow per Zone Floor Area {m3/s-m2}
  ,                                       !- Heating Maximum Air Flow {m3/s}
  ,                                       !- Heating Maximum Air Flow Fraction
  ,                                       !- Design Zone Air Distribution Effectiveness in Cooling Mode
  ,                                       !- Design Zone Air Distribution Effectiveness in Heating Mode
  No,                                     !- Account for Dedicated Outdoor Air System
  NeutralSupplyAir,                       !- Dedicated Outdoor Air System Control Strategy
  autosize,                               !- Dedicated Outdoor Air Low Setpoint Temperature for Design {C}
  autosize;                               !- Dedicated Outdoor Air High Setpoint Temperature for Design {C}

OS:ZoneHVAC:EquipmentList,
  {d8e273e6-3aa2-4cae-8cc5-2eb0e166aa73}, !- Handle
  Zone HVAC Equipment List 2,             !- Name
  {db9726f6-8ffc-450f-87d7-e2e53e7b3da5}, !- Thermal Zone
  {a3472c36-5a95-4890-8f42-48798fed15fb}, !- Zone Equipment 1
  1,                                      !- Zone Equipment Cooling Sequence 1
  1;                                      !- Zone Equipment Heating or No-Load Sequence 1

OS:Space,
  {66108f80-6c50-4c83-9305-490f10c2d6fa}, !- Handle
  living space|unit 2|story 1,            !- Name
  {3611f49a-ffe7-45de-86ab-541006303b91}, !- Space Type Name
  ,                                       !- Default Construction Set Name
  ,                                       !- Default Schedule Set Name
  -0,                                     !- Direction of Relative North {deg}
  0,                                      !- X Origin {m}
  0,                                      !- Y Origin {m}
  0,                                      !- Z Origin {m}
  ,                                       !- Building Story Name
  {db9726f6-8ffc-450f-87d7-e2e53e7b3da5}, !- Thermal Zone Name
  ,                                       !- Part of Total Floor Area
  ,                                       !- Design Specification Outdoor Air Object Name
  {0ea9c2cb-3149-470a-9452-6abc78a13776}; !- Building Unit Name

OS:Surface,
  {0b46560f-52fc-49eb-b0ec-2aca7e0b6005}, !- Handle
  Surface 12,                             !- Name
  Wall,                                   !- Surface Type
  ,                                       !- Construction Name
  {66108f80-6c50-4c83-9305-490f10c2d6fa}, !- Space Name
  Outdoors,                               !- Outside Boundary Condition
  ,                                       !- Outside Boundary Condition Object
  SunExposed,                             !- Sun Exposure
  WindExposed,                            !- Wind Exposure
  ,                                       !- View Factor to Ground
  ,                                       !- Number of Vertices
  6.46578440716979, -12.9315688143396, 2.4384, !- X,Y,Z Vertex 1 {m}
  6.46578440716979, -12.9315688143396, 0, !- X,Y,Z Vertex 2 {m}
  12.9315688143396, -12.9315688143396, 0, !- X,Y,Z Vertex 3 {m}
  12.9315688143396, -12.9315688143396, 2.4384; !- X,Y,Z Vertex 4 {m}

OS:Surface,
  {28e9d7e2-ab6f-4f00-a91e-d4a09336be9f}, !- Handle
  Surface 13,                             !- Name
  RoofCeiling,                            !- Surface Type
  ,                                       !- Construction Name
  {66108f80-6c50-4c83-9305-490f10c2d6fa}, !- Space Name
  Surface,                                !- Outside Boundary Condition
  {b9bbbb32-0751-4aec-9c8b-0eb0dc33cc9d}, !- Outside Boundary Condition Object
  NoSun,                                  !- Sun Exposure
  NoWind,                                 !- Wind Exposure
  ,                                       !- View Factor to Ground
  ,                                       !- Number of Vertices
  12.9315688143396, -12.9315688143396, 2.4384, !- X,Y,Z Vertex 1 {m}
  12.9315688143396, 0, 2.4384,            !- X,Y,Z Vertex 2 {m}
  6.46578440716979, 0, 2.4384,            !- X,Y,Z Vertex 3 {m}
  6.46578440716979, -12.9315688143396, 2.4384; !- X,Y,Z Vertex 4 {m}

OS:Surface,
  {a0e82d25-96ce-4b1c-afa5-25bf0be03e19}, !- Handle
  Surface 14,                             !- Name
  Wall,                                   !- Surface Type
  ,                                       !- Construction Name
  {66108f80-6c50-4c83-9305-490f10c2d6fa}, !- Space Name
  Surface,                                !- Outside Boundary Condition
  {db6a80c0-2494-431c-add9-c9d26af6b644}, !- Outside Boundary Condition Object
  NoSun,                                  !- Sun Exposure
  NoWind,                                 !- Wind Exposure
  ,                                       !- View Factor to Ground
  ,                                       !- Number of Vertices
  12.9315688143396, -12.9315688143396, 2.4384, !- X,Y,Z Vertex 1 {m}
  12.9315688143396, -12.9315688143396, 0, !- X,Y,Z Vertex 2 {m}
  12.9315688143396, 0, 0,                 !- X,Y,Z Vertex 3 {m}
  12.9315688143396, 0, 2.4384;            !- X,Y,Z Vertex 4 {m}

OS:Surface,
  {b5481d31-645d-43bf-8d9b-34bf10a6c931}, !- Handle
  Surface 15,                             !- Name
  Floor,                                  !- Surface Type
  ,                                       !- Construction Name
  {66108f80-6c50-4c83-9305-490f10c2d6fa}, !- Space Name
  Foundation,                             !- Outside Boundary Condition
  ,                                       !- Outside Boundary Condition Object
  NoSun,                                  !- Sun Exposure
  NoWind,                                 !- Wind Exposure
  ,                                       !- View Factor to Ground
  ,                                       !- Number of Vertices
  6.46578440716979, -12.9315688143396, 0, !- X,Y,Z Vertex 1 {m}
  6.46578440716979, 0, 0,                 !- X,Y,Z Vertex 2 {m}
  12.9315688143396, 0, 0,                 !- X,Y,Z Vertex 3 {m}
  12.9315688143396, -12.9315688143396, 0; !- X,Y,Z Vertex 4 {m}

OS:Surface,
  {d69d26b7-da64-4b7c-9b3d-b5c4abd274fa}, !- Handle
  Surface 16,                             !- Name
  Wall,                                   !- Surface Type
  ,                                       !- Construction Name
  {66108f80-6c50-4c83-9305-490f10c2d6fa}, !- Space Name
  Surface,                                !- Outside Boundary Condition
  {2d31548d-b16e-4edc-8cfd-c95cc63388c2}, !- Outside Boundary Condition Object
  NoSun,                                  !- Sun Exposure
  NoWind,                                 !- Wind Exposure
  ,                                       !- View Factor to Ground
  ,                                       !- Number of Vertices
  6.46578440716979, 0, 2.4384,            !- X,Y,Z Vertex 1 {m}
  6.46578440716979, 0, 0,                 !- X,Y,Z Vertex 2 {m}
  6.46578440716979, -12.9315688143396, 0, !- X,Y,Z Vertex 3 {m}
  6.46578440716979, -12.9315688143396, 2.4384; !- X,Y,Z Vertex 4 {m}

OS:Surface,
  {67b7e1f7-6944-4f3a-aa4e-be614ad44f29}, !- Handle
  Surface 17,                             !- Name
  Wall,                                   !- Surface Type
  ,                                       !- Construction Name
  {66108f80-6c50-4c83-9305-490f10c2d6fa}, !- Space Name
  Outdoors,                               !- Outside Boundary Condition
  ,                                       !- Outside Boundary Condition Object
  SunExposed,                             !- Sun Exposure
  WindExposed,                            !- Wind Exposure
  ,                                       !- View Factor to Ground
  ,                                       !- Number of Vertices
  12.9315688143396, 0, 2.4384,            !- X,Y,Z Vertex 1 {m}
  12.9315688143396, 0, 0,                 !- X,Y,Z Vertex 2 {m}
  6.46578440716979, 0, 0,                 !- X,Y,Z Vertex 3 {m}
  6.46578440716979, 0, 2.4384;            !- X,Y,Z Vertex 4 {m}

OS:ThermalZone,
  {5a859a36-b132-450f-b19d-fb2171ac6f36}, !- Handle
  living zone|unit 3,                     !- Name
  ,                                       !- Multiplier
  ,                                       !- Ceiling Height {m}
  ,                                       !- Volume {m3}
  ,                                       !- Floor Area {m2}
  ,                                       !- Zone Inside Convection Algorithm
  ,                                       !- Zone Outside Convection Algorithm
  ,                                       !- Zone Conditioning Equipment List Name
  {34a83c93-fda5-4da5-9b9f-44beac608e25}, !- Zone Air Inlet Port List
  {79786d18-8106-4d42-932e-a9ec66d826ba}, !- Zone Air Exhaust Port List
  {08aae0f7-ea61-4be3-b9aa-27355c8f1b82}, !- Zone Air Node Name
  {d1330f8e-ef4b-4fa6-ac8a-9f34d287bdcb}, !- Zone Return Air Node Name
  ,                                       !- Primary Daylighting Control Name