!- NOTE: Auto-generated from /test/osw_files/SFA_4units_1story_SL_UA_3Beds_2Baths_Denver_CentralAC.osw

OS:Version,
  {173709c6-e427-4660-87b0-bfef8e61bcc2}, !- Handle
  2.6.0;                                  !- Version Identifier

OS:Building,
  {126ac222-3406-455d-991c-a3c451bb1f94}, !- Handle
  Building 1,                             !- Name
  ,                                       !- Building Sector Type
  0,                                      !- North Axis {deg}
  ,                                       !- Nominal Floor to Floor Height {m}
  ,                                       !- Space Type Name
  ,                                       !- Default Construction Set Name
  ,                                       !- Default Schedule Set Name
  1,                                      !- Standards Number of Stories
  1,                                      !- Standards Number of Above Ground Stories
  singlefamilyattached,                   !- Standards Building Type
  4;                                      !- Standards Number of Living Units

OS:Facility,
  {4dc87f14-c5e9-43a6-a0eb-cc938e32db04}; !- Handle

OS:Site,
  {6e43b302-0da7-4b6b-b897-cf4794b1aa56}, !- Handle
  Denver Intl Ap_CO_USA,                  !- Name
  39.83,                                  !- Latitude {deg}
  -104.65,                                !- Longitude {deg}
  -7,                                     !- Time Zone {hr}
  1650,                                   !- Elevation {m}
  ;                                       !- Terrain

OS:SimulationControl,
  {d5f09eaa-9515-4833-b73b-b3d837879033}, !- Handle
  ,                                       !- Do Zone Sizing Calculation
  ,                                       !- Do System Sizing Calculation
  ,                                       !- Do Plant Sizing Calculation
  No;                                     !- Run Simulation for Sizing Periods

OS:Sizing:Parameters,
  {8ad9266a-0a0b-42bf-bea0-f0d4339129fc}, !- Handle
  1.25,                                   !- Heating Sizing Factor
  1.15;                                   !- Cooling Sizing Factor

OS:Timestep,
  {6c0e5a2a-58cb-4413-a8e3-51e4066b5e70}, !- Handle
  6;                                      !- Number of Timesteps per Hour

OS:ShadowCalculation,
  {14d52f75-1e28-449c-a6ca-1c8fc03b4741}, !- Handle
  20,                                     !- Calculation Frequency
  200;                                    !- Maximum Figures in Shadow Overlap Calculations

OS:HeatBalanceAlgorithm,
  {ea062e4c-2dee-4f1b-8a90-c5e7dc6f8aae}, !- Handle
  ConductionTransferFunction,             !- Algorithm
  200;                                    !- Surface Temperature Upper Limit {C}

OS:RunPeriod,
  {d2c4dd03-121e-4f23-8532-c55689dc5db5}, !- Handle
  Run Period 1,                           !- Name
  1,                                      !- Begin Month
  1,                                      !- Begin Day of Month
  12,                                     !- End Month
  31,                                     !- End Day of Month
  ,                                       !- Use Weather File Holidays and Special Days
  ,                                       !- Use Weather File Daylight Saving Period
  ,                                       !- Apply Weekend Holiday Rule
  ,                                       !- Use Weather File Rain Indicators
  ,                                       !- Use Weather File Snow Indicators
  ;                                       !- Number of Times Runperiod to be Repeated

OS:LifeCycleCost:Parameters,
  {3a2f16e5-71b8-417d-a26f-4c7039f37f63}, !- Handle
  ,                                       !- Analysis Type
  ,                                       !- Discounting Convention
  ,                                       !- Inflation Approach
  ,                                       !- Real Discount Rate
  ,                                       !- Nominal Discount Rate
  ,                                       !- Inflation
  ,                                       !- Base Date Month
  ,                                       !- Base Date Year
  ,                                       !- Service Date Month
  ,                                       !- Service Date Year
  ;                                       !- Length of Study Period in Years

OS:SurfaceConvectionAlgorithm:Outside,
  {8260452a-1c74-4dac-90d1-ed0ca1b081e8}, !- Handle
  DOE-2;                                  !- Algorithm

OS:SurfaceConvectionAlgorithm:Inside,
  {b66059e3-9e9b-439a-85dd-989b89968858}, !- Handle
  TARP;                                   !- Algorithm

OS:ZoneCapacitanceMultiplier:ResearchSpecial,
  {f8a27523-0add-436b-b0e3-befed40e9873}, !- Handle
  ,                                       !- Temperature Capacity Multiplier
  15,                                     !- Humidity Capacity Multiplier
  ;                                       !- Carbon Dioxide Capacity Multiplier

OS:ThermalZone,
  {bb7f2fc2-9cbe-4f4e-9b31-13e551a24756}, !- Handle
  living zone,                            !- Name
  ,                                       !- Multiplier
  ,                                       !- Ceiling Height {m}
  ,                                       !- Volume {m3}
  ,                                       !- Floor Area {m2}
  ,                                       !- Zone Inside Convection Algorithm
  ,                                       !- Zone Outside Convection Algorithm
  ,                                       !- Zone Conditioning Equipment List Name
  {8f067b5b-53eb-4652-8443-6a7f0ae7112e}, !- Zone Air Inlet Port List
  {68646cbb-c9ca-4419-9ac8-43bb7c20eab1}, !- Zone Air Exhaust Port List
  {995b7ca3-bb53-413a-ae37-ad9dfc3822f7}, !- Zone Air Node Name
  {6948ea30-35e0-42d8-9656-b78f906dd828}, !- Zone Return Air Node Name
  ,                                       !- Primary Daylighting Control Name
  ,                                       !- Fraction of Zone Controlled by Primary Daylighting Control
  ,                                       !- Secondary Daylighting Control Name
  ,                                       !- Fraction of Zone Controlled by Secondary Daylighting Control
  ,                                       !- Illuminance Map Name
  ,                                       !- Group Rendering Name
  {1acbe791-7e42-4db3-98c0-386371ce4e65}, !- Thermostat Name
  No;                                     !- Use Ideal Air Loads

OS:Node,
  {63377419-41b6-4955-842e-6698ac15e26a}, !- Handle
  Node 1,                                 !- Name
  {995b7ca3-bb53-413a-ae37-ad9dfc3822f7}, !- Inlet Port
  ;                                       !- Outlet Port

OS:Connection,
  {995b7ca3-bb53-413a-ae37-ad9dfc3822f7}, !- Handle
  {8b0ac4d6-8bff-47d8-b474-d73e6aef3dfb}, !- Name
  {bb7f2fc2-9cbe-4f4e-9b31-13e551a24756}, !- Source Object
  11,                                     !- Outlet Port
  {63377419-41b6-4955-842e-6698ac15e26a}, !- Target Object
  2;                                      !- Inlet Port

OS:PortList,
  {8f067b5b-53eb-4652-8443-6a7f0ae7112e}, !- Handle
  {9f70bac5-1f7c-4002-99d2-1941fa88638f}, !- Name
  {bb7f2fc2-9cbe-4f4e-9b31-13e551a24756}, !- HVAC Component
  {70a8afab-9df3-4d0f-b9b4-1018f1ea0b04}; !- Port 1

OS:PortList,
  {68646cbb-c9ca-4419-9ac8-43bb7c20eab1}, !- Handle
  {d6e95ae4-5269-4820-9a0b-0eb5eaf2de71}, !- Name
  {bb7f2fc2-9cbe-4f4e-9b31-13e551a24756}; !- HVAC Component

OS:Sizing:Zone,
  {e5e75c95-2ef6-4e43-a107-6533874062bb}, !- Handle
  {bb7f2fc2-9cbe-4f4e-9b31-13e551a24756}, !- Zone or ZoneList Name
  SupplyAirTemperature,                   !- Zone Cooling Design Supply Air Temperature Input Method
  14,                                     !- Zone Cooling Design Supply Air Temperature {C}
  11.11,                                  !- Zone Cooling Design Supply Air Temperature Difference {deltaC}
  SupplyAirTemperature,                   !- Zone Heating Design Supply Air Temperature Input Method
  40,                                     !- Zone Heating Design Supply Air Temperature {C}
  11.11,                                  !- Zone Heating Design Supply Air Temperature Difference {deltaC}
  0.0085,                                 !- Zone Cooling Design Supply Air Humidity Ratio {kg-H2O/kg-air}
  0.008,                                  !- Zone Heating Design Supply Air Humidity Ratio {kg-H2O/kg-air}
  ,                                       !- Zone Heating Sizing Factor
  ,                                       !- Zone Cooling Sizing Factor
  DesignDay,                              !- Cooling Design Air Flow Method
  ,                                       !- Cooling Design Air Flow Rate {m3/s}
  ,                                       !- Cooling Minimum Air Flow per Zone Floor Area {m3/s-m2}
  ,                                       !- Cooling Minimum Air Flow {m3/s}
  ,                                       !- Cooling Minimum Air Flow Fraction
  DesignDay,                              !- Heating Design Air Flow Method
  ,                                       !- Heating Design Air Flow Rate {m3/s}
  ,                                       !- Heating Maximum Air Flow per Zone Floor Area {m3/s-m2}
  ,                                       !- Heating Maximum Air Flow {m3/s}
  ,                                       !- Heating Maximum Air Flow Fraction
  ,                                       !- Design Zone Air Distribution Effectiveness in Cooling Mode
  ,                                       !- Design Zone Air Distribution Effectiveness in Heating Mode
  No,                                     !- Account for Dedicated Outdoor Air System
  NeutralSupplyAir,                       !- Dedicated Outdoor Air System Control Strategy
  autosize,                               !- Dedicated Outdoor Air Low Setpoint Temperature for Design {C}
  autosize;                               !- Dedicated Outdoor Air High Setpoint Temperature for Design {C}

OS:ZoneHVAC:EquipmentList,
  {1f4dc56b-5a05-40bd-a388-7ccdd9fd760b}, !- Handle
  Zone HVAC Equipment List 1,             !- Name
  {bb7f2fc2-9cbe-4f4e-9b31-13e551a24756}, !- Thermal Zone
  {76703e3c-804e-493f-a572-36000bee2586}, !- Zone Equipment 1
  1,                                      !- Zone Equipment Cooling Sequence 1
  1;                                      !- Zone Equipment Heating or No-Load Sequence 1

OS:Space,
  {61674f5c-44a5-4daa-b205-fcd87df5cf93}, !- Handle
  living space,                           !- Name
  {df72ecfd-714b-4e7c-ad3f-ab1364ac2854}, !- Space Type Name
  ,                                       !- Default Construction Set Name
  ,                                       !- Default Schedule Set Name
  ,                                       !- Direction of Relative North {deg}
  ,                                       !- X Origin {m}
  ,                                       !- Y Origin {m}
  ,                                       !- Z Origin {m}
  ,                                       !- Building Story Name
  {bb7f2fc2-9cbe-4f4e-9b31-13e551a24756}, !- Thermal Zone Name
  ,                                       !- Part of Total Floor Area
  ,                                       !- Design Specification Outdoor Air Object Name
  {de12370d-f5d8-46c4-b598-935f94cef52e}; !- Building Unit Name

OS:Surface,
  {4325ad3c-212d-4f07-a58b-f605ca6923e2}, !- Handle
  Surface 1,                              !- Name
  Floor,                                  !- Surface Type
  ,                                       !- Construction Name
  {61674f5c-44a5-4daa-b205-fcd87df5cf93}, !- Space Name
  Foundation,                             !- Outside Boundary Condition
  ,                                       !- Outside Boundary Condition Object
  NoSun,                                  !- Sun Exposure
  NoWind,                                 !- Wind Exposure
  ,                                       !- View Factor to Ground
  ,                                       !- Number of Vertices
  0, -12.9315688143396, 0,                !- X,Y,Z Vertex 1 {m}
  0, 0, 0,                                !- X,Y,Z Vertex 2 {m}
  6.46578440716979, 0, 0,                 !- X,Y,Z Vertex 3 {m}
  6.46578440716979, -12.9315688143396, 0; !- X,Y,Z Vertex 4 {m}

OS:Surface,
  {6eda63c7-3feb-4590-8527-4ef7bfe6befa}, !- Handle
  Surface 2,                              !- Name
  Wall,                                   !- Surface Type
  ,                                       !- Construction Name
  {61674f5c-44a5-4daa-b205-fcd87df5cf93}, !- Space Name
  Outdoors,                               !- Outside Boundary Condition
  ,                                       !- Outside Boundary Condition Object
  SunExposed,                             !- Sun Exposure
  WindExposed,                            !- Wind Exposure
  ,                                       !- View Factor to Ground
  ,                                       !- Number of Vertices
  0, 0, 2.4384,                           !- X,Y,Z Vertex 1 {m}
  0, 0, 0,                                !- X,Y,Z Vertex 2 {m}
  0, -12.9315688143396, 0,                !- X,Y,Z Vertex 3 {m}
  0, -12.9315688143396, 2.4384;           !- X,Y,Z Vertex 4 {m}

OS:Surface,
  {d61f9c3a-e989-4a82-9fb7-5a3b88c8b8f9}, !- Handle
  Surface 3,                              !- Name
  Wall,                                   !- Surface Type
  ,                                       !- Construction Name
  {61674f5c-44a5-4daa-b205-fcd87df5cf93}, !- Space Name
  Outdoors,                               !- Outside Boundary Condition
  ,                                       !- Outside Boundary Condition Object
  SunExposed,                             !- Sun Exposure
  WindExposed,                            !- Wind Exposure
  ,                                       !- View Factor to Ground
  ,                                       !- Number of Vertices
  6.46578440716979, 0, 2.4384,            !- X,Y,Z Vertex 1 {m}
  6.46578440716979, 0, 0,                 !- X,Y,Z Vertex 2 {m}
  0, 0, 0,                                !- X,Y,Z Vertex 3 {m}
  0, 0, 2.4384;                           !- X,Y,Z Vertex 4 {m}

OS:Surface,
  {0ab91174-1203-4f8f-8ecc-8a183e1316d7}, !- Handle
  Surface 4,                              !- Name
  Wall,                                   !- Surface Type
  ,                                       !- Construction Name
  {61674f5c-44a5-4daa-b205-fcd87df5cf93}, !- Space Name
  Surface,                                !- Outside Boundary Condition
  {6de74d33-82f6-44f9-b516-0227aa2c992f}, !- Outside Boundary Condition Object
  NoSun,                                  !- Sun Exposure
  NoWind,                                 !- Wind Exposure
  ,                                       !- View Factor to Ground
  ,                                       !- Number of Vertices
  6.46578440716979, -12.9315688143396, 2.4384, !- X,Y,Z Vertex 1 {m}
  6.46578440716979, -12.9315688143396, 0, !- X,Y,Z Vertex 2 {m}
  6.46578440716979, 0, 0,                 !- X,Y,Z Vertex 3 {m}
  6.46578440716979, 0, 2.4384;            !- X,Y,Z Vertex 4 {m}

OS:Surface,
  {9605aca3-aa89-4641-9dbd-0e15ada03b9a}, !- Handle
  Surface 5,                              !- Name
  Wall,                                   !- Surface Type
  ,                                       !- Construction Name
  {61674f5c-44a5-4daa-b205-fcd87df5cf93}, !- Space Name
  Outdoors,                               !- Outside Boundary Condition
  ,                                       !- Outside Boundary Condition Object
  SunExposed,                             !- Sun Exposure
  WindExposed,                            !- Wind Exposure
  ,                                       !- View Factor to Ground
  ,                                       !- Number of Vertices
  0, -12.9315688143396, 2.4384,           !- X,Y,Z Vertex 1 {m}
  0, -12.9315688143396, 0,                !- X,Y,Z Vertex 2 {m}
  6.46578440716979, -12.9315688143396, 0, !- X,Y,Z Vertex 3 {m}
  6.46578440716979, -12.9315688143396, 2.4384; !- X,Y,Z Vertex 4 {m}

OS:Surface,
  {f29978f0-149e-44a5-a8f6-b0a4996e071a}, !- Handle
  Surface 6,                              !- Name
  RoofCeiling,                            !- Surface Type
  ,                                       !- Construction Name
  {61674f5c-44a5-4daa-b205-fcd87df5cf93}, !- Space Name
  Surface,                                !- Outside Boundary Condition
  {dde407f0-8e3c-4f2b-89c5-6d9080220efe}, !- Outside Boundary Condition Object
  NoSun,                                  !- Sun Exposure
  NoWind,                                 !- Wind Exposure
  ,                                       !- View Factor to Ground
  ,                                       !- Number of Vertices
  6.46578440716979, -12.9315688143396, 2.4384, !- X,Y,Z Vertex 1 {m}
  6.46578440716979, 0, 2.4384,            !- X,Y,Z Vertex 2 {m}
  0, 0, 2.4384,                           !- X,Y,Z Vertex 3 {m}
  0, -12.9315688143396, 2.4384;           !- X,Y,Z Vertex 4 {m}

OS:SpaceType,
  {df72ecfd-714b-4e7c-ad3f-ab1364ac2854}, !- Handle
  Space Type 1,                           !- Name
  ,                                       !- Default Construction Set Name
  ,                                       !- Default Schedule Set Name
  ,                                       !- Group Rendering Name
  ,                                       !- Design Specification Outdoor Air Object Name
  ,                                       !- Standards Building Type
  living;                                 !- Standards Space Type

OS:ThermalZone,
  {60ba3b96-ca37-4ba5-ba08-ba6f6e20c8cf}, !- Handle
  living zone|unit 2,                     !- Name
  ,                                       !- Multiplier
  ,                                       !- Ceiling Height {m}
  ,                                       !- Volume {m3}
  ,                                       !- Floor Area {m2}
  ,                                       !- Zone Inside Convection Algorithm
  ,                                       !- Zone Outside Convection Algorithm
  ,                                       !- Zone Conditioning Equipment List Name
  {9a3d2f9c-e858-4734-8878-1f734448a88c}, !- Zone Air Inlet Port List
  {bb615c4e-2583-4eb5-af2f-0594032d0cd0}, !- Zone Air Exhaust Port List
  {46bc92a2-7ec9-4a2d-a386-1a3cb752e044}, !- Zone Air Node Name
  {b450db77-3852-4b19-be1d-f4e24688a417}, !- Zone Return Air Node Name
  ,                                       !- Primary Daylighting Control Name
  ,                                       !- Fraction of Zone Controlled by Primary Daylighting Control
  ,                                       !- Secondary Daylighting Control Name
  ,                                       !- Fraction of Zone Controlled by Secondary Daylighting Control
  ,                                       !- Illuminance Map Name
  ,                                       !- Group Rendering Name
  {35e3513b-157a-4bbd-9beb-cd95b1bf988d}, !- Thermostat Name
  No;                                     !- Use Ideal Air Loads

OS:Node,
  {88d33740-30d8-4e96-89d8-0af0dc87aefb}, !- Handle
  Node 2,                                 !- Name
  {46bc92a2-7ec9-4a2d-a386-1a3cb752e044}, !- Inlet Port
  ;                                       !- Outlet Port

OS:Connection,
  {46bc92a2-7ec9-4a2d-a386-1a3cb752e044}, !- Handle
  {bae1875b-b800-4176-bd19-9fb0ccdf4f63}, !- Name
  {60ba3b96-ca37-4ba5-ba08-ba6f6e20c8cf}, !- Source Object
  11,                                     !- Outlet Port
  {88d33740-30d8-4e96-89d8-0af0dc87aefb}, !- Target Object
  2;                                      !- Inlet Port

OS:PortList,
  {9a3d2f9c-e858-4734-8878-1f734448a88c}, !- Handle
  {17cd1911-44ca-4305-a474-c310145f8231}, !- Name
  {60ba3b96-ca37-4ba5-ba08-ba6f6e20c8cf}, !- HVAC Component
  {9799dc67-4f21-4e0d-b98a-96d816f0edfb}; !- Port 1

OS:PortList,
  {bb615c4e-2583-4eb5-af2f-0594032d0cd0}, !- Handle
  {78bee11b-db3b-401c-b3f1-610bd6a466a8}, !- Name
  {60ba3b96-ca37-4ba5-ba08-ba6f6e20c8cf}; !- HVAC Component

OS:Sizing:Zone,
  {44448dc4-6da6-47b7-ac59-d64645aaf76b}, !- Handle
  {60ba3b96-ca37-4ba5-ba08-ba6f6e20c8cf}, !- Zone or ZoneList Name
  SupplyAirTemperature,                   !- Zone Cooling Design Supply Air Temperature Input Method
  14,                                     !- Zone Cooling Design Supply Air Temperature {C}
  11.11,                                  !- Zone Cooling Design Supply Air Temperature Difference {deltaC}
  SupplyAirTemperature,                   !- Zone Heating Design Supply Air Temperature Input Method
  40,                                     !- Zone Heating Design Supply Air Temperature {C}
  11.11,                                  !- Zone Heating Design Supply Air Temperature Difference {deltaC}
  0.0085,                                 !- Zone Cooling Design Supply Air Humidity Ratio {kg-H2O/kg-air}
  0.008,                                  !- Zone Heating Design Supply Air Humidity Ratio {kg-H2O/kg-air}
  ,                                       !- Zone Heating Sizing Factor
  ,                                       !- Zone Cooling Sizing Factor
  DesignDay,                              !- Cooling Design Air Flow Method
  ,                                       !- Cooling Design Air Flow Rate {m3/s}
  ,                                       !- Cooling Minimum Air Flow per Zone Floor Area {m3/s-m2}
  ,                                       !- Cooling Minimum Air Flow {m3/s}
  ,                                       !- Cooling Minimum Air Flow Fraction
  DesignDay,                              !- Heating Design Air Flow Method
  ,                                       !- Heating Design Air Flow Rate {m3/s}
  ,                                       !- Heating Maximum Air Flow per Zone Floor Area {m3/s-m2}
  ,                                       !- Heating Maximum Air Flow {m3/s}
  ,                                       !- Heating Maximum Air Flow Fraction
  ,                                       !- Design Zone Air Distribution Effectiveness in Cooling Mode
  ,                                       !- Design Zone Air Distribution Effectiveness in Heating Mode
  No,                                     !- Account for Dedicated Outdoor Air System
  NeutralSupplyAir,                       !- Dedicated Outdoor Air System Control Strategy
  autosize,                               !- Dedicated Outdoor Air Low Setpoint Temperature for Design {C}
  autosize;                               !- Dedicated Outdoor Air High Setpoint Temperature for Design {C}

OS:ZoneHVAC:EquipmentList,
  {df92b733-c1f6-4369-8f83-bf48efde7117}, !- Handle
  Zone HVAC Equipment List 2,             !- Name
  {60ba3b96-ca37-4ba5-ba08-ba6f6e20c8cf}, !- Thermal Zone
  {f01b9961-b044-4f1a-98ba-3002adcbe753}, !- Zone Equipment 1
  1,                                      !- Zone Equipment Cooling Sequence 1
  1;                                      !- Zone Equipment Heating or No-Load Sequence 1

OS:Space,
  {0177be14-3b56-4a2c-b57d-6387e613a234}, !- Handle
  living space|unit 2|story 1,            !- Name
  {df72ecfd-714b-4e7c-ad3f-ab1364ac2854}, !- Space Type Name
  ,                                       !- Default Construction Set Name
  ,                                       !- Default Schedule Set Name
  -0,                                     !- Direction of Relative North {deg}
  0,                                      !- X Origin {m}
  0,                                      !- Y Origin {m}
  0,                                      !- Z Origin {m}
  ,                                       !- Building Story Name
  {60ba3b96-ca37-4ba5-ba08-ba6f6e20c8cf}, !- Thermal Zone Name
  ,                                       !- Part of Total Floor Area
  ,                                       !- Design Specification Outdoor Air Object Name
  {4fe50f47-192b-4f83-9d2f-1227ff16662e}; !- Building Unit Name

OS:Surface,
  {0c9cae61-2c7e-4758-9c16-34f9842d9f69}, !- Handle
  Surface 12,                             !- Name
  Floor,                                  !- Surface Type
  ,                                       !- Construction Name
  {0177be14-3b56-4a2c-b57d-6387e613a234}, !- Space Name
  Foundation,                             !- Outside Boundary Condition
  ,                                       !- Outside Boundary Condition Object
  NoSun,                                  !- Sun Exposure
  NoWind,                                 !- Wind Exposure
  ,                                       !- View Factor to Ground
  ,                                       !- Number of Vertices
  6.46578440716979, -12.9315688143396, 0, !- X,Y,Z Vertex 1 {m}
  6.46578440716979, 0, 0,                 !- X,Y,Z Vertex 2 {m}
  12.9315688143396, 0, 0,                 !- X,Y,Z Vertex 3 {m}
  12.9315688143396, -12.9315688143396, 0; !- X,Y,Z Vertex 4 {m}

OS:Surface,
  {0faee9bd-bcd5-4eb7-ab38-6c1a19513baa}, !- Handle
  Surface 13,                             !- Name
  RoofCeiling,                            !- Surface Type
  ,                                       !- Construction Name
  {0177be14-3b56-4a2c-b57d-6387e613a234}, !- Space Name
  Surface,                                !- Outside Boundary Condition
  {dbb89794-eddf-4378-9398-3e213fe807e3}, !- Outside Boundary Condition Object
  NoSun,                                  !- Sun Exposure
  NoWind,                                 !- Wind Exposure
  ,                                       !- View Factor to Ground
  ,                                       !- Number of Vertices
  12.9315688143396, -12.9315688143396, 2.4384, !- X,Y,Z Vertex 1 {m}
  12.9315688143396, 0, 2.4384,            !- X,Y,Z Vertex 2 {m}
  6.46578440716979, 0, 2.4384,            !- X,Y,Z Vertex 3 {m}
  6.46578440716979, -12.9315688143396, 2.4384; !- X,Y,Z Vertex 4 {m}

OS:Surface,
  {6de74d33-82f6-44f9-b516-0227aa2c992f}, !- Handle
  Surface 14,                             !- Name
  Wall,                                   !- Surface Type
  ,                                       !- Construction Name
  {0177be14-3b56-4a2c-b57d-6387e613a234}, !- Space Name
  Surface,                                !- Outside Boundary Condition
  {0ab91174-1203-4f8f-8ecc-8a183e1316d7}, !- Outside Boundary Condition Object
  NoSun,                                  !- Sun Exposure
  NoWind,                                 !- Wind Exposure
  ,                                       !- View Factor to Ground
  ,                                       !- Number of Vertices
  6.46578440716979, 0, 2.4384,            !- X,Y,Z Vertex 1 {m}
  6.46578440716979, 0, 0,                 !- X,Y,Z Vertex 2 {m}
  6.46578440716979, -12.9315688143396, 0, !- X,Y,Z Vertex 3 {m}
  6.46578440716979, -12.9315688143396, 2.4384; !- X,Y,Z Vertex 4 {m}

OS:Surface,
  {00500ab5-5460-4f4b-a2fd-10932afbd827}, !- Handle
  Surface 15,                             !- Name
  Wall,                                   !- Surface Type
  ,                                       !- Construction Name
  {0177be14-3b56-4a2c-b57d-6387e613a234}, !- Space Name
  Outdoors,                               !- Outside Boundary Condition
  ,                                       !- Outside Boundary Condition Object
  SunExposed,                             !- Sun Exposure
  WindExposed,                            !- Wind Exposure
  ,                                       !- View Factor to Ground
  ,                                       !- Number of Vertices
  12.9315688143396, 0, 2.4384,            !- X,Y,Z Vertex 1 {m}
  12.9315688143396, 0, 0,                 !- X,Y,Z Vertex 2 {m}
  6.46578440716979, 0, 0,                 !- X,Y,Z Vertex 3 {m}
  6.46578440716979, 0, 2.4384;            !- X,Y,Z Vertex 4 {m}

OS:Surface,
  {69629e23-3d6d-4670-9a21-367b248e0e17}, !- Handle
  Surface 16,                             !- Name
  Wall,                                   !- Surface Type
  ,                                       !- Construction Name
  {0177be14-3b56-4a2c-b57d-6387e613a234}, !- Space Name
  Surface,                                !- Outside Boundary Condition
  {53188e15-3807-40e1-aee5-0a05d4652c28}, !- Outside Boundary Condition Object
  NoSun,                                  !- Sun Exposure
  NoWind,                                 !- Wind Exposure
  ,                                       !- View Factor to Ground
  ,                                       !- Number of Vertices
  12.9315688143396, -12.9315688143396, 2.4384, !- X,Y,Z Vertex 1 {m}
  12.9315688143396, -12.9315688143396, 0, !- X,Y,Z Vertex 2 {m}
  12.9315688143396, 0, 0,                 !- X,Y,Z Vertex 3 {m}
  12.9315688143396, 0, 2.4384;            !- X,Y,Z Vertex 4 {m}

OS:Surface,
  {645af0a3-0d7b-4b27-b6c1-43cfba72b40c}, !- Handle
  Surface 17,                             !- Name
  Wall,                                   !- Surface Type
  ,                                       !- Construction Name
  {0177be14-3b56-4a2c-b57d-6387e613a234}, !- Space Name
  Outdoors,                               !- Outside Boundary Condition
  ,                                       !- Outside Boundary Condition Object
  SunExposed,                             !- Sun Exposure
  WindExposed,                            !- Wind Exposure
  ,                                       !- View Factor to Ground
  ,                                       !- Number of Vertices
  6.46578440716979, -12.9315688143396, 2.4384, !- X,Y,Z Vertex 1 {m}
  6.46578440716979, -12.9315688143396, 0, !- X,Y,Z Vertex 2 {m}
  12.9315688143396, -12.9315688143396, 0, !- X,Y,Z Vertex 3 {m}
  12.9315688143396, -12.9315688143396, 2.4384; !- X,Y,Z Vertex 4 {m}

OS:ThermalZone,
  {6796678c-3a92-4f13-8ef5-a12df2d2929b}, !- Handle
  living zone|unit 3,                     !- Name
  ,                                       !- Multiplier
  ,                                       !- Ceiling Height {m}
  ,                                       !- Volume {m3}
  ,                                       !- Floor Area {m2}