!- NOTE: Auto-generated from /test/osw_files/SFA_4units_1story_SL_UA_3Beds_2Baths_Denver_Boiler.osw

OS:Version,
  {2620848e-7d51-4e7a-b0f5-ff24da2f3af3}, !- Handle
  2.5.1;                                  !- Version Identifier

OS:Building,
  {35757a83-e2b3-4f4e-a0d6-3ac2853279fd}, !- Handle
  Building 1,                             !- Name
  ,                                       !- Building Sector Type
  0,                                      !- North Axis {deg}
  ,                                       !- Nominal Floor to Floor Height {m}
  ,                                       !- Space Type Name
  ,                                       !- Default Construction Set Name
  ,                                       !- Default Schedule Set Name
  1,                                      !- Standards Number of Stories
  1,                                      !- Standards Number of Above Ground Stories
  singlefamilyattached,                   !- Standards Building Type
  4;                                      !- Standards Number of Living Units

OS:Facility,
  {08308a80-cfa8-454b-a167-a77095916855}; !- Handle

OS:Site,
  {40d5efb4-6bb8-4e11-8987-1782a12cfead}, !- Handle
  Denver Intl Ap_CO_USA,                  !- Name
  39.83,                                  !- Latitude {deg}
  -104.65,                                !- Longitude {deg}
  -7,                                     !- Time Zone {hr}
  1650,                                   !- Elevation {m}
  ;                                       !- Terrain

OS:SimulationControl,
  {8a4da30f-274d-41ac-9d1d-9899cd33cde2}, !- Handle
  ,                                       !- Do Zone Sizing Calculation
  ,                                       !- Do System Sizing Calculation
  ,                                       !- Do Plant Sizing Calculation
  No;                                     !- Run Simulation for Sizing Periods

OS:Sizing:Parameters,
  {a7911b24-c186-4f45-bfa1-d057c1daa08f}, !- Handle
  1.25,                                   !- Heating Sizing Factor
  1.15;                                   !- Cooling Sizing Factor

OS:Timestep,
  {dde2b309-41f1-4c2e-b2a3-79f4610b7e98}, !- Handle
  6;                                      !- Number of Timesteps per Hour

OS:ShadowCalculation,
  {6a489814-8560-4d32-b395-c9ce6cee6305}, !- Handle
  20,                                     !- Calculation Frequency
  200;                                    !- Maximum Figures in Shadow Overlap Calculations

OS:HeatBalanceAlgorithm,
  {2cc55763-7c4f-44b1-a6a1-a9d000de4385}, !- Handle
  ConductionTransferFunction,             !- Algorithm
  200;                                    !- Surface Temperature Upper Limit {C}

OS:RunPeriod,
  {4449f95e-6ff7-4847-9cd3-89a13d713130}, !- Handle
  Run Period 1,                           !- Name
  1,                                      !- Begin Month
  1,                                      !- Begin Day of Month
  12,                                     !- End Month
  31,                                     !- End Day of Month
  ,                                       !- Use Weather File Holidays and Special Days
  ,                                       !- Use Weather File Daylight Saving Period
  ,                                       !- Apply Weekend Holiday Rule
  ,                                       !- Use Weather File Rain Indicators
  ,                                       !- Use Weather File Snow Indicators
  ;                                       !- Number of Times Runperiod to be Repeated

OS:LifeCycleCost:Parameters,
  {9f708649-1832-4b46-87d1-c9718200448c}, !- Handle
  ,                                       !- Analysis Type
  ,                                       !- Discounting Convention
  ,                                       !- Inflation Approach
  ,                                       !- Real Discount Rate
  ,                                       !- Nominal Discount Rate
  ,                                       !- Inflation
  ,                                       !- Base Date Month
  ,                                       !- Base Date Year
  ,                                       !- Service Date Month
  ,                                       !- Service Date Year
  ;                                       !- Length of Study Period in Years

OS:ThermalZone,
  {feda9d65-c2f3-4a23-9acf-806dc9a61c10}, !- Handle
  living zone,                            !- Name
  ,                                       !- Multiplier
  ,                                       !- Ceiling Height {m}
  ,                                       !- Volume {m3}
  ,                                       !- Floor Area {m2}
  ,                                       !- Zone Inside Convection Algorithm
  ,                                       !- Zone Outside Convection Algorithm
  ,                                       !- Zone Conditioning Equipment List Name
  {bcc74f9a-f4c4-427b-b302-7e85526f2d8c}, !- Zone Air Inlet Port List
  {773a6db3-6556-425d-b1d9-02d72b970f73}, !- Zone Air Exhaust Port List
  {ccac1bd7-a487-43e6-b6da-8762a980fc34}, !- Zone Air Node Name
  ,                                       !- Zone Return Air Node Name
  ,                                       !- Primary Daylighting Control Name
  ,                                       !- Fraction of Zone Controlled by Primary Daylighting Control
  ,                                       !- Secondary Daylighting Control Name
  ,                                       !- Fraction of Zone Controlled by Secondary Daylighting Control
  ,                                       !- Illuminance Map Name
  ,                                       !- Group Rendering Name
  {fbb7f605-8af9-4eca-a2ef-d97c179a50ef}, !- Thermostat Name
  No;                                     !- Use Ideal Air Loads

OS:Node,
  {7be290ea-42b6-4020-8750-b33b03e84c5e}, !- Handle
  Node 1,                                 !- Name
  {ccac1bd7-a487-43e6-b6da-8762a980fc34}, !- Inlet Port
  ;                                       !- Outlet Port

OS:Connection,
  {ccac1bd7-a487-43e6-b6da-8762a980fc34}, !- Handle
  {fb63b22d-2d75-4d57-bee3-22188c3a576f}, !- Name
  {feda9d65-c2f3-4a23-9acf-806dc9a61c10}, !- Source Object
  11,                                     !- Outlet Port
  {7be290ea-42b6-4020-8750-b33b03e84c5e}, !- Target Object
  2;                                      !- Inlet Port

OS:PortList,
  {bcc74f9a-f4c4-427b-b302-7e85526f2d8c}, !- Handle
  {7cf04840-7ac8-40b0-baa6-61fe6ce20d72}, !- Name
  {feda9d65-c2f3-4a23-9acf-806dc9a61c10}; !- HVAC Component

OS:PortList,
  {773a6db3-6556-425d-b1d9-02d72b970f73}, !- Handle
  {8bf0eda4-6bac-45d6-8f6e-75e48d9fbe90}, !- Name
  {feda9d65-c2f3-4a23-9acf-806dc9a61c10}; !- HVAC Component

OS:Sizing:Zone,
  {93224e8b-88f3-478d-817f-e59dff05e19a}, !- Handle
  {feda9d65-c2f3-4a23-9acf-806dc9a61c10}, !- Zone or ZoneList Name
  SupplyAirTemperature,                   !- Zone Cooling Design Supply Air Temperature Input Method
  14,                                     !- Zone Cooling Design Supply Air Temperature {C}
  11.11,                                  !- Zone Cooling Design Supply Air Temperature Difference {deltaC}
  SupplyAirTemperature,                   !- Zone Heating Design Supply Air Temperature Input Method
  40,                                     !- Zone Heating Design Supply Air Temperature {C}
  11.11,                                  !- Zone Heating Design Supply Air Temperature Difference {deltaC}
  0.0085,                                 !- Zone Cooling Design Supply Air Humidity Ratio {kg-H2O/kg-air}
  0.008,                                  !- Zone Heating Design Supply Air Humidity Ratio {kg-H2O/kg-air}
  ,                                       !- Zone Heating Sizing Factor
  ,                                       !- Zone Cooling Sizing Factor
  DesignDay,                              !- Cooling Design Air Flow Method
  ,                                       !- Cooling Design Air Flow Rate {m3/s}
  ,                                       !- Cooling Minimum Air Flow per Zone Floor Area {m3/s-m2}
  ,                                       !- Cooling Minimum Air Flow {m3/s}
  ,                                       !- Cooling Minimum Air Flow Fraction
  DesignDay,                              !- Heating Design Air Flow Method
  ,                                       !- Heating Design Air Flow Rate {m3/s}
  ,                                       !- Heating Maximum Air Flow per Zone Floor Area {m3/s-m2}
  ,                                       !- Heating Maximum Air Flow {m3/s}
  ,                                       !- Heating Maximum Air Flow Fraction
  ,                                       !- Design Zone Air Distribution Effectiveness in Cooling Mode
  ,                                       !- Design Zone Air Distribution Effectiveness in Heating Mode
  No,                                     !- Account for Dedicated Outdoor Air System
  NeutralSupplyAir,                       !- Dedicated Outdoor Air System Control Strategy
  autosize,                               !- Dedicated Outdoor Air Low Setpoint Temperature for Design {C}
  autosize;                               !- Dedicated Outdoor Air High Setpoint Temperature for Design {C}

OS:ZoneHVAC:EquipmentList,
  {4f7515a9-4ede-4933-87cd-0c9281834571}, !- Handle
  Zone HVAC Equipment List 1,             !- Name
  {feda9d65-c2f3-4a23-9acf-806dc9a61c10}, !- Thermal Zone
  {22fc6a73-a5cf-4568-946a-2a690b243715}, !- Zone Equipment 1
  1,                                      !- Zone Equipment Cooling Sequence 1
  1;                                      !- Zone Equipment Heating or No-Load Sequence 1

OS:Space,
  {f8a89a4d-62bc-4ea6-b9d7-b5c95d6ee223}, !- Handle
  living space,                           !- Name
  {907390aa-bf3a-48d2-8099-92bd6b360c87}, !- Space Type Name
  ,                                       !- Default Construction Set Name
  ,                                       !- Default Schedule Set Name
  ,                                       !- Direction of Relative North {deg}
  ,                                       !- X Origin {m}
  ,                                       !- Y Origin {m}
  ,                                       !- Z Origin {m}
  ,                                       !- Building Story Name
  {feda9d65-c2f3-4a23-9acf-806dc9a61c10}, !- Thermal Zone Name
  ,                                       !- Part of Total Floor Area
  ,                                       !- Design Specification Outdoor Air Object Name
  {bd3106db-3e09-44a6-a456-a6231b445e01}; !- Building Unit Name

OS:Surface,
  {3dae06bb-660b-4e69-ad2f-8cb7761ee5d7}, !- Handle
  Surface 1,                              !- Name
  Floor,                                  !- Surface Type
  ,                                       !- Construction Name
  {f8a89a4d-62bc-4ea6-b9d7-b5c95d6ee223}, !- Space Name
  Foundation,                             !- Outside Boundary Condition
  ,                                       !- Outside Boundary Condition Object
  NoSun,                                  !- Sun Exposure
  NoWind,                                 !- Wind Exposure
  ,                                       !- View Factor to Ground
  ,                                       !- Number of Vertices
  0, -12.9315688143396, 0,                !- X,Y,Z Vertex 1 {m}
  0, 0, 0,                                !- X,Y,Z Vertex 2 {m}
  6.46578440716979, 0, 0,                 !- X,Y,Z Vertex 3 {m}
  6.46578440716979, -12.9315688143396, 0; !- X,Y,Z Vertex 4 {m}

OS:Surface,
  {d76438fb-fd5c-4f3f-81f4-95ca9eff1b64}, !- Handle
  Surface 2,                              !- Name
  Wall,                                   !- Surface Type
  ,                                       !- Construction Name
  {f8a89a4d-62bc-4ea6-b9d7-b5c95d6ee223}, !- Space Name
  Outdoors,                               !- Outside Boundary Condition
  ,                                       !- Outside Boundary Condition Object
  SunExposed,                             !- Sun Exposure
  WindExposed,                            !- Wind Exposure
  ,                                       !- View Factor to Ground
  ,                                       !- Number of Vertices
  0, 0, 2.4384,                           !- X,Y,Z Vertex 1 {m}
  0, 0, 0,                                !- X,Y,Z Vertex 2 {m}
  0, -12.9315688143396, 0,                !- X,Y,Z Vertex 3 {m}
  0, -12.9315688143396, 2.4384;           !- X,Y,Z Vertex 4 {m}

OS:Surface,
  {690e5f99-0e2a-46c9-a6b4-5ef3764c71d0}, !- Handle
  Surface 3,                              !- Name
  Wall,                                   !- Surface Type
  ,                                       !- Construction Name
  {f8a89a4d-62bc-4ea6-b9d7-b5c95d6ee223}, !- Space Name
  Outdoors,                               !- Outside Boundary Condition
  ,                                       !- Outside Boundary Condition Object
  SunExposed,                             !- Sun Exposure
  WindExposed,                            !- Wind Exposure
  ,                                       !- View Factor to Ground
  ,                                       !- Number of Vertices
  6.46578440716979, 0, 2.4384,            !- X,Y,Z Vertex 1 {m}
  6.46578440716979, 0, 0,                 !- X,Y,Z Vertex 2 {m}
  0, 0, 0,                                !- X,Y,Z Vertex 3 {m}
  0, 0, 2.4384;                           !- X,Y,Z Vertex 4 {m}

OS:Surface,
  {17e1a9fd-34db-488d-8f54-5041343c8c89}, !- Handle
  Surface 4,                              !- Name
  Wall,                                   !- Surface Type
  ,                                       !- Construction Name
  {f8a89a4d-62bc-4ea6-b9d7-b5c95d6ee223}, !- Space Name
  Surface,                                !- Outside Boundary Condition
  {ce42bfcd-b0b8-497f-92b2-0ecc838a634c}, !- Outside Boundary Condition Object
  NoSun,                                  !- Sun Exposure
  NoWind,                                 !- Wind Exposure
  ,                                       !- View Factor to Ground
  ,                                       !- Number of Vertices
  6.46578440716979, -12.9315688143396, 2.4384, !- X,Y,Z Vertex 1 {m}
  6.46578440716979, -12.9315688143396, 0, !- X,Y,Z Vertex 2 {m}
  6.46578440716979, 0, 0,                 !- X,Y,Z Vertex 3 {m}
  6.46578440716979, 0, 2.4384;            !- X,Y,Z Vertex 4 {m}

OS:Surface,
  {3954a2c1-d607-47e5-89a2-86e65aefb7e2}, !- Handle
  Surface 5,                              !- Name
  Wall,                                   !- Surface Type
  ,                                       !- Construction Name
  {f8a89a4d-62bc-4ea6-b9d7-b5c95d6ee223}, !- Space Name
  Outdoors,                               !- Outside Boundary Condition
  ,                                       !- Outside Boundary Condition Object
  SunExposed,                             !- Sun Exposure
  WindExposed,                            !- Wind Exposure
  ,                                       !- View Factor to Ground
  ,                                       !- Number of Vertices
  0, -12.9315688143396, 2.4384,           !- X,Y,Z Vertex 1 {m}
  0, -12.9315688143396, 0,                !- X,Y,Z Vertex 2 {m}
  6.46578440716979, -12.9315688143396, 0, !- X,Y,Z Vertex 3 {m}
  6.46578440716979, -12.9315688143396, 2.4384; !- X,Y,Z Vertex 4 {m}

OS:Surface,
  {23feeb99-730e-4c95-8f63-ecfc9551c0b2}, !- Handle
  Surface 6,                              !- Name
  RoofCeiling,                            !- Surface Type
  ,                                       !- Construction Name
  {f8a89a4d-62bc-4ea6-b9d7-b5c95d6ee223}, !- Space Name
  Surface,                                !- Outside Boundary Condition
  {5a31c240-9456-4846-a7c0-b7179fab91ab}, !- Outside Boundary Condition Object
  NoSun,                                  !- Sun Exposure
  NoWind,                                 !- Wind Exposure
  ,                                       !- View Factor to Ground
  ,                                       !- Number of Vertices
  6.46578440716979, -12.9315688143396, 2.4384, !- X,Y,Z Vertex 1 {m}
  6.46578440716979, 0, 2.4384,            !- X,Y,Z Vertex 2 {m}
  0, 0, 2.4384,                           !- X,Y,Z Vertex 3 {m}
  0, -12.9315688143396, 2.4384;           !- X,Y,Z Vertex 4 {m}

OS:SpaceType,
  {907390aa-bf3a-48d2-8099-92bd6b360c87}, !- Handle
  Space Type 1,                           !- Name
  ,                                       !- Default Construction Set Name
  ,                                       !- Default Schedule Set Name
  ,                                       !- Group Rendering Name
  ,                                       !- Design Specification Outdoor Air Object Name
  ,                                       !- Standards Building Type
  living;                                 !- Standards Space Type

OS:ThermalZone,
  {16cc34b8-1e9f-4ddc-9d95-49eebb531bb3}, !- Handle
  living zone|unit 2,                     !- Name
  ,                                       !- Multiplier
  ,                                       !- Ceiling Height {m}
  ,                                       !- Volume {m3}
  ,                                       !- Floor Area {m2}
  ,                                       !- Zone Inside Convection Algorithm
  ,                                       !- Zone Outside Convection Algorithm
  ,                                       !- Zone Conditioning Equipment List Name
  {2000c4fa-0fa5-452c-a7c7-072da158bdfe}, !- Zone Air Inlet Port List
  {a8582d8b-55fe-4e69-addd-3f0e50e5133d}, !- Zone Air Exhaust Port List
  {35bbfc1a-6be6-4e97-8035-4437130ac6be}, !- Zone Air Node Name
  ,                                       !- Zone Return Air Node Name
  ,                                       !- Primary Daylighting Control Name
  ,                                       !- Fraction of Zone Controlled by Primary Daylighting Control
  ,                                       !- Secondary Daylighting Control Name
  ,                                       !- Fraction of Zone Controlled by Secondary Daylighting Control
  ,                                       !- Illuminance Map Name
  ,                                       !- Group Rendering Name
  {89a2a78d-2540-46c5-8dd5-dbc8747af269}, !- Thermostat Name
  No;                                     !- Use Ideal Air Loads

OS:Node,
  {6c131559-49c9-4c86-a616-4729883e2bb3}, !- Handle
  Node 2,                                 !- Name
  {35bbfc1a-6be6-4e97-8035-4437130ac6be}, !- Inlet Port
  ;                                       !- Outlet Port

OS:Connection,
  {35bbfc1a-6be6-4e97-8035-4437130ac6be}, !- Handle
  {6c2ff6d0-4a51-4475-947f-1f203157db0f}, !- Name
  {16cc34b8-1e9f-4ddc-9d95-49eebb531bb3}, !- Source Object
  11,                                     !- Outlet Port
  {6c131559-49c9-4c86-a616-4729883e2bb3}, !- Target Object
  2;                                      !- Inlet Port

OS:PortList,
  {2000c4fa-0fa5-452c-a7c7-072da158bdfe}, !- Handle
  {d6e3012f-f76a-4c03-8d6d-8e34104c7d40}, !- Name
  {16cc34b8-1e9f-4ddc-9d95-49eebb531bb3}; !- HVAC Component

OS:PortList,
  {a8582d8b-55fe-4e69-addd-3f0e50e5133d}, !- Handle
  {49aa5cbd-e563-4cc3-95d2-5380fd952513}, !- Name
  {16cc34b8-1e9f-4ddc-9d95-49eebb531bb3}; !- HVAC Component

OS:Sizing:Zone,
  {0c53f8e4-7c2f-4289-b834-26bbfdc3a2f5}, !- Handle
  {16cc34b8-1e9f-4ddc-9d95-49eebb531bb3}, !- Zone or ZoneList Name
  SupplyAirTemperature,                   !- Zone Cooling Design Supply Air Temperature Input Method
  14,                                     !- Zone Cooling Design Supply Air Temperature {C}
  11.11,                                  !- Zone Cooling Design Supply Air Temperature Difference {deltaC}
  SupplyAirTemperature,                   !- Zone Heating Design Supply Air Temperature Input Method
  40,                                     !- Zone Heating Design Supply Air Temperature {C}
  11.11,                                  !- Zone Heating Design Supply Air Temperature Difference {deltaC}
  0.0085,                                 !- Zone Cooling Design Supply Air Humidity Ratio {kg-H2O/kg-air}
  0.008,                                  !- Zone Heating Design Supply Air Humidity Ratio {kg-H2O/kg-air}
  ,                                       !- Zone Heating Sizing Factor
  ,                                       !- Zone Cooling Sizing Factor
  DesignDay,                              !- Cooling Design Air Flow Method
  ,                                       !- Cooling Design Air Flow Rate {m3/s}
  ,                                       !- Cooling Minimum Air Flow per Zone Floor Area {m3/s-m2}
  ,                                       !- Cooling Minimum Air Flow {m3/s}
  ,                                       !- Cooling Minimum Air Flow Fraction
  DesignDay,                              !- Heating Design Air Flow Method
  ,                                       !- Heating Design Air Flow Rate {m3/s}
  ,                                       !- Heating Maximum Air Flow per Zone Floor Area {m3/s-m2}
  ,                                       !- Heating Maximum Air Flow {m3/s}
  ,                                       !- Heating Maximum Air Flow Fraction
  ,                                       !- Design Zone Air Distribution Effectiveness in Cooling Mode
  ,                                       !- Design Zone Air Distribution Effectiveness in Heating Mode
  No,                                     !- Account for Dedicated Outdoor Air System
  NeutralSupplyAir,                       !- Dedicated Outdoor Air System Control Strategy
  autosize,                               !- Dedicated Outdoor Air Low Setpoint Temperature for Design {C}
  autosize;                               !- Dedicated Outdoor Air High Setpoint Temperature for Design {C}

OS:ZoneHVAC:EquipmentList,
  {ef8ae747-5664-4434-a66b-4cfc5105cc0a}, !- Handle
  Zone HVAC Equipment List 2,             !- Name
  {16cc34b8-1e9f-4ddc-9d95-49eebb531bb3}, !- Thermal Zone
  {3f352d8e-b959-4528-9e56-5fe96aefe980}, !- Zone Equipment 1
  1,                                      !- Zone Equipment Cooling Sequence 1
  1;                                      !- Zone Equipment Heating or No-Load Sequence 1

OS:Space,
  {7f4e98e3-0b90-4be6-9319-eea2ad82359f}, !- Handle
  living space|unit 2|story 1,            !- Name
  {907390aa-bf3a-48d2-8099-92bd6b360c87}, !- Space Type Name
  ,                                       !- Default Construction Set Name
  ,                                       !- Default Schedule Set Name
  -0,                                     !- Direction of Relative North {deg}
  0,                                      !- X Origin {m}
  0,                                      !- Y Origin {m}
  0,                                      !- Z Origin {m}
  ,                                       !- Building Story Name
  {16cc34b8-1e9f-4ddc-9d95-49eebb531bb3}, !- Thermal Zone Name
  ,                                       !- Part of Total Floor Area
  ,                                       !- Design Specification Outdoor Air Object Name
  {9e2312d9-3e10-42f6-b3be-2fb9290e5d79}; !- Building Unit Name

OS:Surface,
  {817775a4-3ae4-4686-9095-8399e75d0ff2}, !- Handle
  Surface 12,                             !- Name
  Floor,                                  !- Surface Type
  ,                                       !- Construction Name
  {7f4e98e3-0b90-4be6-9319-eea2ad82359f}, !- Space Name
  Foundation,                             !- Outside Boundary Condition
  ,                                       !- Outside Boundary Condition Object
  NoSun,                                  !- Sun Exposure
  NoWind,                                 !- Wind Exposure
  ,                                       !- View Factor to Ground
  ,                                       !- Number of Vertices
  6.46578440716979, -12.9315688143396, 0, !- X,Y,Z Vertex 1 {m}
  6.46578440716979, 0, 0,                 !- X,Y,Z Vertex 2 {m}
  12.9315688143396, 0, 0,                 !- X,Y,Z Vertex 3 {m}
  12.9315688143396, -12.9315688143396, 0; !- X,Y,Z Vertex 4 {m}

OS:Surface,
  {ce42bfcd-b0b8-497f-92b2-0ecc838a634c}, !- Handle
  Surface 13,                             !- Name
  Wall,                                   !- Surface Type
  ,                                       !- Construction Name
  {7f4e98e3-0b90-4be6-9319-eea2ad82359f}, !- Space Name
  Surface,                                !- Outside Boundary Condition
  {17e1a9fd-34db-488d-8f54-5041343c8c89}, !- Outside Boundary Condition Object
  NoSun,                                  !- Sun Exposure
  NoWind,                                 !- Wind Exposure
  ,                                       !- View Factor to Ground
  ,                                       !- Number of Vertices
  6.46578440716979, 0, 2.4384,            !- X,Y,Z Vertex 1 {m}
  6.46578440716979, 0, 0,                 !- X,Y,Z Vertex 2 {m}
  6.46578440716979, -12.9315688143396, 0, !- X,Y,Z Vertex 3 {m}
  6.46578440716979, -12.9315688143396, 2.4384; !- X,Y,Z Vertex 4 {m}

OS:Surface,
  {94771b1b-e96b-488f-a17b-68b1afb33d29}, !- Handle
  Surface 14,                             !- Name
  Wall,                                   !- Surface Type
  ,                                       !- Construction Name
  {7f4e98e3-0b90-4be6-9319-eea2ad82359f}, !- Space Name
  Outdoors,                               !- Outside Boundary Condition
  ,                                       !- Outside Boundary Condition Object
  SunExposed,                             !- Sun Exposure
  WindExposed,                            !- Wind Exposure
  ,                                       !- View Factor to Ground
  ,                                       !- Number of Vertices
  12.9315688143396, 0, 2.4384,            !- X,Y,Z Vertex 1 {m}
  12.9315688143396, 0, 0,                 !- X,Y,Z Vertex 2 {m}
  6.46578440716979, 0, 0,                 !- X,Y,Z Vertex 3 {m}
  6.46578440716979, 0, 2.4384;            !- X,Y,Z Vertex 4 {m}

OS:Surface,
  {9633c7b4-60dc-4820-8272-c5acd24dd8f1}, !- Handle
  Surface 15,                             !- Name
  Wall,                                   !- Surface Type
  ,                                       !- Construction Name
  {7f4e98e3-0b90-4be6-9319-eea2ad82359f}, !- Space Name
  Surface,                                !- Outside Boundary Condition
  {a9f3f29f-b22d-45be-8aed-512409d2011b}, !- Outside Boundary Condition Object
  NoSun,                                  !- Sun Exposure
  NoWind,                                 !- Wind Exposure
  ,                                       !- View Factor to Ground
  ,                                       !- Number of Vertices
  12.9315688143396, -12.9315688143396, 2.4384, !- X,Y,Z Vertex 1 {m}
  12.9315688143396, -12.9315688143396, 0, !- X,Y,Z Vertex 2 {m}
  12.9315688143396, 0, 0,                 !- X,Y,Z Vertex 3 {m}
  12.9315688143396, 0, 2.4384;            !- X,Y,Z Vertex 4 {m}

OS:Surface,
  {f3440b17-1b5a-4d2d-8e49-530daffccfeb}, !- Handle
  Surface 16,                             !- Name
  Wall,                                   !- Surface Type
  ,                                       !- Construction Name
  {7f4e98e3-0b90-4be6-9319-eea2ad82359f}, !- Space Name
  Outdoors,                               !- Outside Boundary Condition
  ,                                       !- Outside Boundary Condition Object
  SunExposed,                             !- Sun Exposure
  WindExposed,                            !- Wind Exposure
  ,                                       !- View Factor to Ground
  ,                                       !- Number of Vertices
  6.46578440716979, -12.9315688143396, 2.4384, !- X,Y,Z Vertex 1 {m}
  6.46578440716979, -12.9315688143396, 0, !- X,Y,Z Vertex 2 {m}
  12.9315688143396, -12.9315688143396, 0, !- X,Y,Z Vertex 3 {m}
  12.9315688143396, -12.9315688143396, 2.4384; !- X,Y,Z Vertex 4 {m}

OS:Surface,
  {e226b854-e393-4a4e-9bb9-7242e99172db}, !- Handle
  Surface 17,                             !- Name
  RoofCeiling,                            !- Surface Type
  ,                                       !- Construction Name
  {7f4e98e3-0b90-4be6-9319-eea2ad82359f}, !- Space Name
  Surface,                                !- Outside Boundary Condition
  {3b6b261d-3af4-4b99-a9f5-b9b788e758f6}, !- Outside Boundary Condition Object
  NoSun,                                  !- Sun Exposure
  NoWind,                                 !- Wind Exposure
  ,                                       !- View Factor to Ground
  ,                                       !- Number of Vertices
  12.9315688143396, -12.9315688143396, 2.4384, !- X,Y,Z Vertex 1 {m}
  12.9315688143396, 0, 2.4384,            !- X,Y,Z Vertex 2 {m}
  6.46578440716979, 0, 2.4384,            !- X,Y,Z Vertex 3 {m}
  6.46578440716979, -12.9315688143396, 2.4384; !- X,Y,Z Vertex 4 {m}

OS:ThermalZone,
  {ec4ca818-43b3-4b10-b612-faf7c1848ba6}, !- Handle
  living zone|unit 3,                     !- Name
  ,                                       !- Multiplier
  ,                                       !- Ceiling Height {m}
  ,                                       !- Volume {m3}
  ,                                       !- Floor Area {m2}
  ,                                       !- Zone Inside Convection Algorithm
  ,                                       !- Zone Outside Convection Algorithm
  ,                                       !- Zone Conditioning Equipment List Name
  {551d9248-3040-42bc-9d88-d8e004923985}, !- Zone Air Inlet Port List
  {f60179d6-6d19-42f3-b587-2c4e8f1ffb0c}, !- Zone Air Exhaust Port List
  {141f1a85-5185-42ad-b125-039bedf0816d}, !- Zone Air Node Name
  ,                                       !- Zone Return Air Node Name
  ,                                       !- Primary Daylighting Control Name
  ,                                       !- Fraction of Zone Controlled by Primary Daylighting Control