!- NOTE: Auto-generated from /test/osw_files/SFD_2000sqft_2story_FB_GRG_UA_3Beds_2Baths_Denver_WHTankless.osw

OS:Version,
  {9633c4f9-c59b-4828-a5f8-d0a6fbbcdf21}, !- Handle
  2.7.0;                                  !- Version Identifier

OS:Building,
  {04b4fad3-f7c9-4c69-92ce-537837143d15}, !- Handle
  Building 1,                             !- Name
  ,                                       !- Building Sector Type
  0,                                      !- North Axis {deg}
  ,                                       !- Nominal Floor to Floor Height {m}
  ,                                       !- Space Type Name
  ,                                       !- Default Construction Set Name
  ,                                       !- Default Schedule Set Name
  3,                                      !- Standards Number of Stories
  2,                                      !- Standards Number of Above Ground Stories
  ,                                       !- Standards Template
  singlefamilydetached,                   !- Standards Building Type
  1;                                      !- Standards Number of Living Units

OS:Facility,
  {a25ca6f7-4412-4b0c-ae14-c4054827d401}; !- Handle

OS:Site,
  {61f8ef5a-51b3-45ac-ba33-22576d523d39}, !- Handle
  Denver Intl Ap_CO_USA,                  !- Name
  39.83,                                  !- Latitude {deg}
  -104.65,                                !- Longitude {deg}
  -7,                                     !- Time Zone {hr}
  1650,                                   !- Elevation {m}
  ;                                       !- Terrain

OS:SimulationControl,
  {0f1f77d5-2940-498a-94a3-f0fd71af4e16}, !- Handle
  ,                                       !- Do Zone Sizing Calculation
  ,                                       !- Do System Sizing Calculation
  ,                                       !- Do Plant Sizing Calculation
  No;                                     !- Run Simulation for Sizing Periods

OS:Sizing:Parameters,
  {ee6adb9c-4cf2-4e8c-9948-c60da2099308}, !- Handle
  1.25,                                   !- Heating Sizing Factor
  1.15;                                   !- Cooling Sizing Factor

OS:Timestep,
  {84499588-dc5a-483a-b80c-a3dff05975cc}, !- Handle
  6;                                      !- Number of Timesteps per Hour

OS:ShadowCalculation,
  {1f78a03f-5b54-47cb-94a3-6482e42c03be}, !- Handle
  20,                                     !- Calculation Frequency
  200;                                    !- Maximum Figures in Shadow Overlap Calculations

OS:HeatBalanceAlgorithm,
  {1c7b0aac-5365-4730-81e2-d65439dd3816}, !- Handle
  ConductionTransferFunction,             !- Algorithm
  200;                                    !- Surface Temperature Upper Limit {C}

OS:RunPeriod,
  {b14a3a93-9bcb-4f8c-9fa3-8fda42bbd896}, !- Handle
  Run Period 1,                           !- Name
  1,                                      !- Begin Month
  1,                                      !- Begin Day of Month
  12,                                     !- End Month
  31,                                     !- End Day of Month
  ,                                       !- Use Weather File Holidays and Special Days
  ,                                       !- Use Weather File Daylight Saving Period
  ,                                       !- Apply Weekend Holiday Rule
  ,                                       !- Use Weather File Rain Indicators
  ,                                       !- Use Weather File Snow Indicators
  ;                                       !- Number of Times Runperiod to be Repeated

OS:LifeCycleCost:Parameters,
  {3810f651-267b-47b7-a03e-910f99649d32}, !- Handle
  ,                                       !- Analysis Type
  ,                                       !- Discounting Convention
  ,                                       !- Inflation Approach
  ,                                       !- Real Discount Rate
  ,                                       !- Nominal Discount Rate
  ,                                       !- Inflation
  ,                                       !- Base Date Month
  ,                                       !- Base Date Year
  ,                                       !- Service Date Month
  ,                                       !- Service Date Year
  ;                                       !- Length of Study Period in Years

OS:SurfaceConvectionAlgorithm:Outside,
  {ddeb2b42-c0c0-4fb8-a461-7f334e6bc0e3}, !- Handle
  DOE-2;                                  !- Algorithm

OS:SurfaceConvectionAlgorithm:Inside,
  {f564c4bf-62cc-4b9c-8438-a49776ee05fb}, !- Handle
  TARP;                                   !- Algorithm

OS:ZoneCapacitanceMultiplier:ResearchSpecial,
  {4c8ed386-f71e-4f5d-b8b7-9de85214726f}, !- Handle
  ,                                       !- Temperature Capacity Multiplier
  15,                                     !- Humidity Capacity Multiplier
  ;                                       !- Carbon Dioxide Capacity Multiplier

OS:ThermalZone,
  {214445eb-a6c1-479e-8db7-f84bea20897f}, !- Handle
  living zone,                            !- Name
  ,                                       !- Multiplier
  ,                                       !- Ceiling Height {m}
  ,                                       !- Volume {m3}
  ,                                       !- Floor Area {m2}
  ,                                       !- Zone Inside Convection Algorithm
  ,                                       !- Zone Outside Convection Algorithm
  ,                                       !- Zone Conditioning Equipment List Name
  {30756ea2-e8ea-464b-88eb-e9df3535525f}, !- Zone Air Inlet Port List
  {fd02b8a6-6ac4-4e10-94a4-3e095d7b2b7f}, !- Zone Air Exhaust Port List
  {48e8f79d-73ec-487a-bd64-880c620490bb}, !- Zone Air Node Name
  {043178c7-ba8d-42ed-8c66-1678cb9c7852}, !- Zone Return Air Port List
  ,                                       !- Primary Daylighting Control Name
  ,                                       !- Fraction of Zone Controlled by Primary Daylighting Control
  ,                                       !- Secondary Daylighting Control Name
  ,                                       !- Fraction of Zone Controlled by Secondary Daylighting Control
  ,                                       !- Illuminance Map Name
  ,                                       !- Group Rendering Name
  ,                                       !- Thermostat Name
  No;                                     !- Use Ideal Air Loads

OS:Node,
  {9bf635f8-3e67-4e87-a950-aabb2aa9c8b8}, !- Handle
  Node 1,                                 !- Name
  {48e8f79d-73ec-487a-bd64-880c620490bb}, !- Inlet Port
  ;                                       !- Outlet Port

OS:Connection,
  {48e8f79d-73ec-487a-bd64-880c620490bb}, !- Handle
  {1add477b-eb9d-4dae-94da-b93f541e302a}, !- Name
  {214445eb-a6c1-479e-8db7-f84bea20897f}, !- Source Object
  11,                                     !- Outlet Port
  {9bf635f8-3e67-4e87-a950-aabb2aa9c8b8}, !- Target Object
  2;                                      !- Inlet Port

OS:PortList,
  {30756ea2-e8ea-464b-88eb-e9df3535525f}, !- Handle
  {b00f2792-432b-415c-9ca1-1147b6f0edae}, !- Name
  {214445eb-a6c1-479e-8db7-f84bea20897f}; !- HVAC Component

OS:PortList,
  {fd02b8a6-6ac4-4e10-94a4-3e095d7b2b7f}, !- Handle
  {a313d187-9127-4f1e-81dd-960cfafdd835}, !- Name
  {214445eb-a6c1-479e-8db7-f84bea20897f}; !- HVAC Component

OS:PortList,
  {043178c7-ba8d-42ed-8c66-1678cb9c7852}, !- Handle
  {96cf5ba5-f3bc-403f-b2fd-ec7cdf968b95}, !- Name
  {214445eb-a6c1-479e-8db7-f84bea20897f}; !- HVAC Component

OS:Sizing:Zone,
  {7d6f0e25-3cde-43f1-a521-78950ae9082d}, !- Handle
  {214445eb-a6c1-479e-8db7-f84bea20897f}, !- Zone or ZoneList Name
  SupplyAirTemperature,                   !- Zone Cooling Design Supply Air Temperature Input Method
  14,                                     !- Zone Cooling Design Supply Air Temperature {C}
  11.11,                                  !- Zone Cooling Design Supply Air Temperature Difference {deltaC}
  SupplyAirTemperature,                   !- Zone Heating Design Supply Air Temperature Input Method
  40,                                     !- Zone Heating Design Supply Air Temperature {C}
  11.11,                                  !- Zone Heating Design Supply Air Temperature Difference {deltaC}
  0.0085,                                 !- Zone Cooling Design Supply Air Humidity Ratio {kg-H2O/kg-air}
  0.008,                                  !- Zone Heating Design Supply Air Humidity Ratio {kg-H2O/kg-air}
  ,                                       !- Zone Heating Sizing Factor
  ,                                       !- Zone Cooling Sizing Factor
  DesignDay,                              !- Cooling Design Air Flow Method
  ,                                       !- Cooling Design Air Flow Rate {m3/s}
  ,                                       !- Cooling Minimum Air Flow per Zone Floor Area {m3/s-m2}
  ,                                       !- Cooling Minimum Air Flow {m3/s}
  ,                                       !- Cooling Minimum Air Flow Fraction
  DesignDay,                              !- Heating Design Air Flow Method
  ,                                       !- Heating Design Air Flow Rate {m3/s}
  ,                                       !- Heating Maximum Air Flow per Zone Floor Area {m3/s-m2}
  ,                                       !- Heating Maximum Air Flow {m3/s}
  ,                                       !- Heating Maximum Air Flow Fraction
  ,                                       !- Design Zone Air Distribution Effectiveness in Cooling Mode
  ,                                       !- Design Zone Air Distribution Effectiveness in Heating Mode
  No,                                     !- Account for Dedicated Outdoor Air System
  NeutralSupplyAir,                       !- Dedicated Outdoor Air System Control Strategy
  autosize,                               !- Dedicated Outdoor Air Low Setpoint Temperature for Design {C}
  autosize;                               !- Dedicated Outdoor Air High Setpoint Temperature for Design {C}

OS:ZoneHVAC:EquipmentList,
  {c4ed005f-2526-48c2-b2fc-7e4303828c75}, !- Handle
  Zone HVAC Equipment List 1,             !- Name
  {214445eb-a6c1-479e-8db7-f84bea20897f}; !- Thermal Zone

OS:ThermalZone,
  {0de2e284-4ee1-4afd-ba7a-e40009d4a2e0}, !- Handle
  garage zone,                            !- Name
  ,                                       !- Multiplier
  ,                                       !- Ceiling Height {m}
  ,                                       !- Volume {m3}
  ,                                       !- Floor Area {m2}
  ,                                       !- Zone Inside Convection Algorithm
  ,                                       !- Zone Outside Convection Algorithm
  ,                                       !- Zone Conditioning Equipment List Name
  {cf79e703-f945-49cd-882f-ed3a17cc57a9}, !- Zone Air Inlet Port List
  {52e8214e-1ce2-4662-b0c6-325d3eafac0a}, !- Zone Air Exhaust Port List
  {5695362b-e7b9-45ce-9c60-fab89d62e754}, !- Zone Air Node Name
  {d784a9e4-ac6e-4d4a-a0ca-ccbc7847adb9}, !- Zone Return Air Port List
  ,                                       !- Primary Daylighting Control Name
  ,                                       !- Fraction of Zone Controlled by Primary Daylighting Control
  ,                                       !- Secondary Daylighting Control Name
  ,                                       !- Fraction of Zone Controlled by Secondary Daylighting Control
  ,                                       !- Illuminance Map Name
  ,                                       !- Group Rendering Name
  ,                                       !- Thermostat Name
  No;                                     !- Use Ideal Air Loads

OS:Node,
  {59f9fc7c-be03-4649-8047-faa4041545cd}, !- Handle
  Node 2,                                 !- Name
  {5695362b-e7b9-45ce-9c60-fab89d62e754}, !- Inlet Port
  ;                                       !- Outlet Port

OS:Connection,
  {5695362b-e7b9-45ce-9c60-fab89d62e754}, !- Handle
  {daf1495c-2684-45bb-b47f-b36e43c15a3d}, !- Name
  {0de2e284-4ee1-4afd-ba7a-e40009d4a2e0}, !- Source Object
  11,                                     !- Outlet Port
  {59f9fc7c-be03-4649-8047-faa4041545cd}, !- Target Object
  2;                                      !- Inlet Port

OS:PortList,
  {cf79e703-f945-49cd-882f-ed3a17cc57a9}, !- Handle
  {193f7e05-4a4c-4f61-acb1-c03aecf271aa}, !- Name
  {0de2e284-4ee1-4afd-ba7a-e40009d4a2e0}; !- HVAC Component

OS:PortList,
  {52e8214e-1ce2-4662-b0c6-325d3eafac0a}, !- Handle
  {b4b936b3-1c91-4ffb-b1b9-cf13387b3955}, !- Name
  {0de2e284-4ee1-4afd-ba7a-e40009d4a2e0}; !- HVAC Component

OS:PortList,
  {d784a9e4-ac6e-4d4a-a0ca-ccbc7847adb9}, !- Handle
  {c658ec5d-71e1-494e-b99b-fdf7cef7fed9}, !- Name
  {0de2e284-4ee1-4afd-ba7a-e40009d4a2e0}; !- HVAC Component

OS:Sizing:Zone,
  {2a1569ef-c1cd-4610-b458-e7c9d54c4ecb}, !- Handle
  {0de2e284-4ee1-4afd-ba7a-e40009d4a2e0}, !- Zone or ZoneList Name
  SupplyAirTemperature,                   !- Zone Cooling Design Supply Air Temperature Input Method
  14,                                     !- Zone Cooling Design Supply Air Temperature {C}
  11.11,                                  !- Zone Cooling Design Supply Air Temperature Difference {deltaC}
  SupplyAirTemperature,                   !- Zone Heating Design Supply Air Temperature Input Method
  40,                                     !- Zone Heating Design Supply Air Temperature {C}
  11.11,                                  !- Zone Heating Design Supply Air Temperature Difference {deltaC}
  0.0085,                                 !- Zone Cooling Design Supply Air Humidity Ratio {kg-H2O/kg-air}
  0.008,                                  !- Zone Heating Design Supply Air Humidity Ratio {kg-H2O/kg-air}
  ,                                       !- Zone Heating Sizing Factor
  ,                                       !- Zone Cooling Sizing Factor
  DesignDay,                              !- Cooling Design Air Flow Method
  ,                                       !- Cooling Design Air Flow Rate {m3/s}
  ,                                       !- Cooling Minimum Air Flow per Zone Floor Area {m3/s-m2}
  ,                                       !- Cooling Minimum Air Flow {m3/s}
  ,                                       !- Cooling Minimum Air Flow Fraction
  DesignDay,                              !- Heating Design Air Flow Method
  ,                                       !- Heating Design Air Flow Rate {m3/s}
  ,                                       !- Heating Maximum Air Flow per Zone Floor Area {m3/s-m2}
  ,                                       !- Heating Maximum Air Flow {m3/s}
  ,                                       !- Heating Maximum Air Flow Fraction
  ,                                       !- Design Zone Air Distribution Effectiveness in Cooling Mode
  ,                                       !- Design Zone Air Distribution Effectiveness in Heating Mode
  No,                                     !- Account for Dedicated Outdoor Air System
  NeutralSupplyAir,                       !- Dedicated Outdoor Air System Control Strategy
  autosize,                               !- Dedicated Outdoor Air Low Setpoint Temperature for Design {C}
  autosize;                               !- Dedicated Outdoor Air High Setpoint Temperature for Design {C}

OS:ZoneHVAC:EquipmentList,
  {dae1b7f1-fa0b-4914-9ba0-961b0e760ec8}, !- Handle
  Zone HVAC Equipment List 2,             !- Name
  {0de2e284-4ee1-4afd-ba7a-e40009d4a2e0}; !- Thermal Zone

OS:Space,
  {8e9b4971-7483-4939-b443-4dbfa7e1c6b5}, !- Handle
  garage space,                           !- Name
  {e331dc3f-b136-4294-99ce-49fb17bef98b}, !- Space Type Name
  ,                                       !- Default Construction Set Name
  ,                                       !- Default Schedule Set Name
  -0,                                     !- Direction of Relative North {deg}
  0,                                      !- X Origin {m}
  0,                                      !- Y Origin {m}
  0,                                      !- Z Origin {m}
  ,                                       !- Building Story Name
  {0de2e284-4ee1-4afd-ba7a-e40009d4a2e0}; !- Thermal Zone Name

OS:Surface,
  {bf5f8f2d-2817-451d-84a0-88f8604b7a0a}, !- Handle
  Surface 1,                              !- Name
  Floor,                                  !- Surface Type
  ,                                       !- Construction Name
  {8e9b4971-7483-4939-b443-4dbfa7e1c6b5}, !- Space Name
  Foundation,                             !- Outside Boundary Condition
  ,                                       !- Outside Boundary Condition Object
  NoSun,                                  !- Sun Exposure
  NoWind,                                 !- Wind Exposure
  ,                                       !- View Factor to Ground
  ,                                       !- Number of Vertices
  5.57695129776527, -3.048, 0,            !- X,Y,Z Vertex 1 {m}
  5.57695129776527, 3.048, 0,             !- X,Y,Z Vertex 2 {m}
  11.6729512977653, 3.048, 0,             !- X,Y,Z Vertex 3 {m}
  11.6729512977653, -3.048, 0;            !- X,Y,Z Vertex 4 {m}

OS:Surface,
  {c327d6d4-ac02-46fe-8624-5ebdde1af226}, !- Handle
  Surface 2,                              !- Name
  Wall,                                   !- Surface Type
  ,                                       !- Construction Name
  {8e9b4971-7483-4939-b443-4dbfa7e1c6b5}, !- Space Name
  Surface,                                !- Outside Boundary Condition
  {647579c0-1f0b-49f4-bb7c-aafd18da2fd0}, !- Outside Boundary Condition Object
  NoSun,                                  !- Sun Exposure
  NoWind,                                 !- Wind Exposure
  ,                                       !- View Factor to Ground
  ,                                       !- Number of Vertices
  5.57695129776527, 3.048, 2.4384,        !- X,Y,Z Vertex 1 {m}
  5.57695129776527, 3.048, 0,             !- X,Y,Z Vertex 2 {m}
  5.57695129776527, 0, 0,                 !- X,Y,Z Vertex 3 {m}
  5.57695129776527, 0, 2.4384;            !- X,Y,Z Vertex 4 {m}

OS:Surface,
  {7977e7a3-743e-4c05-b28a-857989ba4398}, !- Handle
  Surface 3,                              !- Name
  Wall,                                   !- Surface Type
  ,                                       !- Construction Name
  {8e9b4971-7483-4939-b443-4dbfa7e1c6b5}, !- Space Name
  Surface,                                !- Outside Boundary Condition
  {03a3bc6f-3a2b-4551-9182-21e5f771adb1}, !- Outside Boundary Condition Object
  NoSun,                                  !- Sun Exposure
  NoWind,                                 !- Wind Exposure
  ,                                       !- View Factor to Ground
  ,                                       !- Number of Vertices
  11.6729512977653, 3.048, 2.4384,        !- X,Y,Z Vertex 1 {m}
  11.6729512977653, 3.048, 0,             !- X,Y,Z Vertex 2 {m}
  5.57695129776527, 3.048, 0,             !- X,Y,Z Vertex 3 {m}
  5.57695129776527, 3.048, 2.4384;        !- X,Y,Z Vertex 4 {m}

OS:Surface,
  {e190be4b-c251-4912-8eb6-1b18cf45c51a}, !- Handle
  Surface 4,                              !- Name
  Wall,                                   !- Surface Type
  ,                                       !- Construction Name
  {8e9b4971-7483-4939-b443-4dbfa7e1c6b5}, !- Space Name
  Outdoors,                               !- Outside Boundary Condition
  ,                                       !- Outside Boundary Condition Object
  SunExposed,                             !- Sun Exposure
  WindExposed,                            !- Wind Exposure
  ,                                       !- View Factor to Ground
  ,                                       !- Number of Vertices
  11.6729512977653, -3.048, 2.4384,       !- X,Y,Z Vertex 1 {m}
  11.6729512977653, -3.048, 0,            !- X,Y,Z Vertex 2 {m}
  11.6729512977653, 3.048, 0,             !- X,Y,Z Vertex 3 {m}
  11.6729512977653, 3.048, 2.4384;        !- X,Y,Z Vertex 4 {m}

OS:Surface,
  {517b6c06-4116-42f2-871f-a9cfb18165cd}, !- Handle
  Surface 5,                              !- Name
  Wall,                                   !- Surface Type
  ,                                       !- Construction Name
  {8e9b4971-7483-4939-b443-4dbfa7e1c6b5}, !- Space Name
  Outdoors,                               !- Outside Boundary Condition
  ,                                       !- Outside Boundary Condition Object
  SunExposed,                             !- Sun Exposure
  WindExposed,                            !- Wind Exposure
  ,                                       !- View Factor to Ground
  ,                                       !- Number of Vertices
  5.57695129776527, -3.048, 2.4384,       !- X,Y,Z Vertex 1 {m}
  5.57695129776527, -3.048, 0,            !- X,Y,Z Vertex 2 {m}
  11.6729512977653, -3.048, 0,            !- X,Y,Z Vertex 3 {m}
  11.6729512977653, -3.048, 2.4384;       !- X,Y,Z Vertex 4 {m}

OS:Surface,
  {ed7758ba-8ff9-48f9-854b-ee40eb7b3dde}, !- Handle
  Surface 6,                              !- Name
  RoofCeiling,                            !- Surface Type
  ,                                       !- Construction Name
  {8e9b4971-7483-4939-b443-4dbfa7e1c6b5}, !- Space Name
  Surface,                                !- Outside Boundary Condition
  {35969851-5f96-4bf2-8a0d-33e9e0d35524}, !- Outside Boundary Condition Object
  NoSun,                                  !- Sun Exposure
  NoWind,                                 !- Wind Exposure
  ,                                       !- View Factor to Ground
  ,                                       !- Number of Vertices
  11.6729512977653, -3.048, 2.4384,       !- X,Y,Z Vertex 1 {m}
  11.6729512977653, 3.048, 2.4384,        !- X,Y,Z Vertex 2 {m}
  5.57695129776527, 3.048, 2.4384,        !- X,Y,Z Vertex 3 {m}
  5.57695129776527, -3.048, 2.4384;       !- X,Y,Z Vertex 4 {m}

OS:SpaceType,
  {e331dc3f-b136-4294-99ce-49fb17bef98b}, !- Handle
  Space Type 1,                           !- Name
  ,                                       !- Default Construction Set Name
  ,                                       !- Default Schedule Set Name
  ,                                       !- Group Rendering Name
  ,                                       !- Design Specification Outdoor Air Object Name
  ,                                       !- Standards Template
  ,                                       !- Standards Building Type
  garage;                                 !- Standards Space Type

OS:Space,
  {6926d6ea-b049-45fe-9950-b26e91841493}, !- Handle
  living space,                           !- Name
  {f83f92c2-9812-4666-b23e-c2a4c2b4a648}, !- Space Type Name
  ,                                       !- Default Construction Set Name
  ,                                       !- Default Schedule Set Name
  -0,                                     !- Direction of Relative North {deg}
  0,                                      !- X Origin {m}
  0,                                      !- Y Origin {m}
  0,                                      !- Z Origin {m}
  ,                                       !- Building Story Name
  {214445eb-a6c1-479e-8db7-f84bea20897f}, !- Thermal Zone Name
  ,                                       !- Part of Total Floor Area
  ,                                       !- Design Specification Outdoor Air Object Name
  {83435751-8713-4e51-b70d-c973d14c18fe}; !- Building Unit Name

OS:Surface,
  {353e9412-6447-46a0-8321-1908399cfeab}, !- Handle
  Surface 7,                              !- Name
  Floor,                                  !- Surface Type
  ,                                       !- Construction Name
  {6926d6ea-b049-45fe-9950-b26e91841493}, !- Space Name
  Surface,                                !- Outside Boundary Condition
  {0e196fee-e25d-4e8b-b65b-84398a4b49e6}, !- Outside Boundary Condition Object
  NoSun,                                  !- Sun Exposure
  NoWind,                                 !- Wind Exposure
  ,                                       !- View Factor to Ground
  ,                                       !- Number of Vertices
  0, 0, 0,                                !- X,Y,Z Vertex 1 {m}
  0, 5.83647564888264, 0,                 !- X,Y,Z Vertex 2 {m}
  11.6729512977653, 5.83647564888264, 0,  !- X,Y,Z Vertex 3 {m}
  11.6729512977653, 3.048, 0,             !- X,Y,Z Vertex 4 {m}
  5.57695129776527, 3.048, 0,             !- X,Y,Z Vertex 5 {m}
  5.57695129776527, 0, 0;                 !- X,Y,Z Vertex 6 {m}

OS:Surface,
  {42a70a58-6e30-4304-aeb5-8aae68fc2a2c}, !- Handle
  Surface 8,                              !- Name
  Wall,                                   !- Surface Type
  ,                                       !- Construction Name
  {6926d6ea-b049-45fe-9950-b26e91841493}, !- Space Name
  Outdoors,                               !- Outside Boundary Condition
  ,                                       !- Outside Boundary Condition Object
  SunExposed,                             !- Sun Exposure
  WindExposed,                            !- Wind Exposure
  ,                                       !- View Factor to Ground
  ,                                       !- Number of Vertices
  0, 5.83647564888264, 2.4384,            !- X,Y,Z Vertex 1 {m}
  0, 5.83647564888264, 0,                 !- X,Y,Z Vertex 2 {m}
  0, 0, 0,                                !- X,Y,Z Vertex 3 {m}
  0, 0, 2.4384;                           !- X,Y,Z Vertex 4 {m}

OS:Surface,
  {a7135d63-aab5-494a-91e7-794938f204c1}, !- Handle
  Surface 9,                              !- Name
  Wall,                                   !- Surface Type
  ,                                       !- Construction Name
  {6926d6ea-b049-45fe-9950-b26e91841493}, !- Space Name
  Outdoors,                               !- Outside Boundary Condition
  ,                                       !- Outside Boundary Condition Object
  SunExposed,                             !- Sun Exposure
  WindExposed,                            !- Wind Exposure
  ,                                       !- View Factor to Ground
  ,                                       !- Number of Vertices
  11.6729512977653, 5.83647564888264, 2.4384, !- X,Y,Z Vertex 1 {m}
  11.6729512977653, 5.83647564888264, 0,  !- X,Y,Z Vertex 2 {m}
  0, 5.83647564888264, 0,                 !- X,Y,Z Vertex 3 {m}
  0, 5.83647564888264, 2.4384;            !- X,Y,Z Vertex 4 {m}

OS:Surface,
  {ffab693e-12dd-466f-acc4-0454773eca25}, !- Handle
  Surface 10,                             !- Name
  Wall,                                   !- Surface Type
  ,                                       !- Construction Name
  {6926d6ea-b049-45fe-9950-b26e91841493}, !- Space Name
  Outdoors,                               !- Outside Boundary Condition
  ,                                       !- Outside Boundary Condition Object
  SunExposed,                             !- Sun Exposure
  WindExposed,                            !- Wind Exposure
  ,                                       !- View Factor to Ground
  ,                                       !- Number of Vertices
  11.6729512977653, 3.048, 2.4384,        !- X,Y,Z Vertex 1 {m}
  11.6729512977653, 3.048, 0,             !- X,Y,Z Vertex 2 {m}
  11.6729512977653, 5.83647564888264, 0,  !- X,Y,Z Vertex 3 {m}
  11.6729512977653, 5.83647564888264, 2.4384; !- X,Y,Z Vertex 4 {m}

OS:Surface,
  {03a3bc6f-3a2b-4551-9182-21e5f771adb1}, !- Handle
  Surface 11,                             !- Name
  Wall,                                   !- Surface Type
  ,                                       !- Construction Name
  {6926d6ea-b049-45fe-9950-b26e91841493}, !- Space Name
  Surface,                                !- Outside Boundary Condition
  {7977e7a3-743e-4c05-b28a-857989ba4398}, !- Outside Boundary Condition Object
  NoSun,                                  !- Sun Exposure
  NoWind,                                 !- Wind Exposure
  ,                                       !- View Factor to Ground
  ,                                       !- Number of Vertices
  5.57695129776527, 3.048, 2.4384,        !- X,Y,Z Vertex 1 {m}
  5.57695129776527, 3.048, 0,             !- X,Y,Z Vertex 2 {m}
  11.6729512977653, 3.048, 0,             !- X,Y,Z Vertex 3 {m}
  11.6729512977653, 3.048, 2.4384;        !- X,Y,Z Vertex 4 {m}

OS:Surface,
  {647579c0-1f0b-49f4-bb7c-aafd18da2fd0}, !- Handle
  Surface 12,                             !- Name
  Wall,                                   !- Surface Type
  ,                                       !- Construction Name
  {6926d6ea-b049-45fe-9950-b26e91841493}, !- Space Name
  Surface,                                !- Outside Boundary Condition
  {c327d6d4-ac02-46fe-8624-5ebdde1af226}, !- Outside Boundary Condition Object
  NoSun,                                  !- Sun Exposure
  NoWind,                                 !- Wind Exposure
  ,                                       !- View Factor to Ground
  ,                                       !- Number of Vertices
  5.57695129776527, 0, 2.4384,            !- X,Y,Z Vertex 1 {m}
  5.57695129776527, 0, 0,                 !- X,Y,Z Vertex 2 {m}
  5.57695129776527, 3.048, 0,             !- X,Y,Z Vertex 3 {m}
  5.57695129776527, 3.048, 2.4384;        !- X,Y,Z Vertex 4 {m}

OS:Surface,
  {962d21aa-ac4e-4a40-873a-641979169a56}, !- Handle
  Surface 13,                             !- Name
  Wall,                                   !- Surface Type
  ,                                       !- Construction Name
  {6926d6ea-b049-45fe-9950-b26e91841493}, !- Space Name
  Outdoors,                               !- Outside Boundary Condition
  ,                                       !- Outside Boundary Condition Object
  SunExposed,                             !- Sun Exposure
  WindExposed,                            !- Wind Exposure