!- NOTE: Auto-generated from /test/osw_files/SFD_2000sqft_2story_FB_GRG_UA_3Beds_2Baths_Denver_East_GasWHTank.osw

OS:Version,
  {99e876c9-f9cb-42c6-9730-2a16bc9b92c1}, !- Handle
  2.6.1;                                  !- Version Identifier

OS:Building,
  {2e144481-14c9-4f5c-b754-465f06634abe}, !- Handle
  Building 1,                             !- Name
  ,                                       !- Building Sector Type
  270,                                    !- North Axis {deg}
  ,                                       !- Nominal Floor to Floor Height {m}
  ,                                       !- Space Type Name
  ,                                       !- Default Construction Set Name
  ,                                       !- Default Schedule Set Name
  3,                                      !- Standards Number of Stories
  2,                                      !- Standards Number of Above Ground Stories
  singlefamilydetached,                   !- Standards Building Type
  1;                                      !- Standards Number of Living Units

OS:Facility,
  {c31254d6-bfcd-4a34-9c22-384f19ba1997}; !- Handle

OS:Site,
  {30240ec4-aa8f-407d-85ab-6fba8312728e}, !- Handle
  Denver Intl Ap_CO_USA,                  !- Name
  39.83,                                  !- Latitude {deg}
  -104.65,                                !- Longitude {deg}
  -7,                                     !- Time Zone {hr}
  1650,                                   !- Elevation {m}
  ;                                       !- Terrain

OS:SimulationControl,
  {02695f9c-e975-4356-b81d-7c92d13c7e92}, !- Handle
  ,                                       !- Do Zone Sizing Calculation
  ,                                       !- Do System Sizing Calculation
  ,                                       !- Do Plant Sizing Calculation
  No;                                     !- Run Simulation for Sizing Periods

OS:Sizing:Parameters,
  {1414d74e-af72-497e-bc72-ee85395843f6}, !- Handle
  1.25,                                   !- Heating Sizing Factor
  1.15;                                   !- Cooling Sizing Factor

OS:Timestep,
  {5b452262-5fe1-47cd-8be2-2c494ebf60ce}, !- Handle
  6;                                      !- Number of Timesteps per Hour

OS:ShadowCalculation,
  {f8660d88-df9f-4aac-b024-731051dad072}, !- Handle
  20,                                     !- Calculation Frequency
  200;                                    !- Maximum Figures in Shadow Overlap Calculations

OS:HeatBalanceAlgorithm,
  {6dfe7d16-322f-4869-ad95-1c02d7404ccf}, !- Handle
  ConductionTransferFunction,             !- Algorithm
  200;                                    !- Surface Temperature Upper Limit {C}

OS:RunPeriod,
  {49f9afc6-34e5-4833-aac1-5e8e255ffcb9}, !- Handle
  Run Period 1,                           !- Name
  1,                                      !- Begin Month
  1,                                      !- Begin Day of Month
  12,                                     !- End Month
  31,                                     !- End Day of Month
  ,                                       !- Use Weather File Holidays and Special Days
  ,                                       !- Use Weather File Daylight Saving Period
  ,                                       !- Apply Weekend Holiday Rule
  ,                                       !- Use Weather File Rain Indicators
  ,                                       !- Use Weather File Snow Indicators
  ;                                       !- Number of Times Runperiod to be Repeated

OS:LifeCycleCost:Parameters,
  {726d378a-8111-4962-a7f9-dce9e4c645f9}, !- Handle
  ,                                       !- Analysis Type
  ,                                       !- Discounting Convention
  ,                                       !- Inflation Approach
  ,                                       !- Real Discount Rate
  ,                                       !- Nominal Discount Rate
  ,                                       !- Inflation
  ,                                       !- Base Date Month
  ,                                       !- Base Date Year
  ,                                       !- Service Date Month
  ,                                       !- Service Date Year
  ;                                       !- Length of Study Period in Years

OS:ThermalZone,
  {e356173b-dc84-4fc5-b37c-3358e11743c2}, !- Handle
  living zone,                            !- Name
  ,                                       !- Multiplier
  ,                                       !- Ceiling Height {m}
  ,                                       !- Volume {m3}
  ,                                       !- Floor Area {m2}
  ,                                       !- Zone Inside Convection Algorithm
  ,                                       !- Zone Outside Convection Algorithm
  ,                                       !- Zone Conditioning Equipment List Name
  {7f9c3ae5-c814-42fe-8f99-d428286dcb6c}, !- Zone Air Inlet Port List
  {b7ab0fc2-15b6-4ebd-8d02-d3695c9259b4}, !- Zone Air Exhaust Port List
  {884b53df-e437-4737-9723-1cacdfffc8ea}, !- Zone Air Node Name
  {9d9f8e0b-8f5b-401f-ba3c-0e5af126b46a}, !- Zone Return Air Port List
  ,                                       !- Primary Daylighting Control Name
  ,                                       !- Fraction of Zone Controlled by Primary Daylighting Control
  ,                                       !- Secondary Daylighting Control Name
  ,                                       !- Fraction of Zone Controlled by Secondary Daylighting Control
  ,                                       !- Illuminance Map Name
  ,                                       !- Group Rendering Name
  ,                                       !- Thermostat Name
  No;                                     !- Use Ideal Air Loads

OS:Node,
  {a0dc8fb9-4ab2-4526-8b34-b8e1a4a8706b}, !- Handle
  Node 1,                                 !- Name
  {884b53df-e437-4737-9723-1cacdfffc8ea}, !- Inlet Port
  ;                                       !- Outlet Port

OS:Connection,
  {884b53df-e437-4737-9723-1cacdfffc8ea}, !- Handle
  {5495cdcd-1d7b-4a35-a018-d70ad6d7497b}, !- Name
  {e356173b-dc84-4fc5-b37c-3358e11743c2}, !- Source Object
  11,                                     !- Outlet Port
  {a0dc8fb9-4ab2-4526-8b34-b8e1a4a8706b}, !- Target Object
  2;                                      !- Inlet Port

OS:PortList,
  {7f9c3ae5-c814-42fe-8f99-d428286dcb6c}, !- Handle
  {cab80875-8247-487e-89d8-54d6ec3bf587}, !- Name
  {e356173b-dc84-4fc5-b37c-3358e11743c2}; !- HVAC Component

OS:PortList,
  {b7ab0fc2-15b6-4ebd-8d02-d3695c9259b4}, !- Handle
  {594052de-b845-4dd1-8955-3c6df999cf1a}, !- Name
  {e356173b-dc84-4fc5-b37c-3358e11743c2}; !- HVAC Component

OS:PortList,
  {9d9f8e0b-8f5b-401f-ba3c-0e5af126b46a}, !- Handle
  {37c6db7c-6939-4441-b8ce-f91b6c7b4d14}, !- Name
  {e356173b-dc84-4fc5-b37c-3358e11743c2}; !- HVAC Component

OS:Sizing:Zone,
  {f639420c-ee02-4a59-a141-00e98ccf9994}, !- Handle
  {e356173b-dc84-4fc5-b37c-3358e11743c2}, !- Zone or ZoneList Name
  SupplyAirTemperature,                   !- Zone Cooling Design Supply Air Temperature Input Method
  14,                                     !- Zone Cooling Design Supply Air Temperature {C}
  11.11,                                  !- Zone Cooling Design Supply Air Temperature Difference {deltaC}
  SupplyAirTemperature,                   !- Zone Heating Design Supply Air Temperature Input Method
  40,                                     !- Zone Heating Design Supply Air Temperature {C}
  11.11,                                  !- Zone Heating Design Supply Air Temperature Difference {deltaC}
  0.0085,                                 !- Zone Cooling Design Supply Air Humidity Ratio {kg-H2O/kg-air}
  0.008,                                  !- Zone Heating Design Supply Air Humidity Ratio {kg-H2O/kg-air}
  ,                                       !- Zone Heating Sizing Factor
  ,                                       !- Zone Cooling Sizing Factor
  DesignDay,                              !- Cooling Design Air Flow Method
  ,                                       !- Cooling Design Air Flow Rate {m3/s}
  ,                                       !- Cooling Minimum Air Flow per Zone Floor Area {m3/s-m2}
  ,                                       !- Cooling Minimum Air Flow {m3/s}
  ,                                       !- Cooling Minimum Air Flow Fraction
  DesignDay,                              !- Heating Design Air Flow Method
  ,                                       !- Heating Design Air Flow Rate {m3/s}
  ,                                       !- Heating Maximum Air Flow per Zone Floor Area {m3/s-m2}
  ,                                       !- Heating Maximum Air Flow {m3/s}
  ,                                       !- Heating Maximum Air Flow Fraction
  ,                                       !- Design Zone Air Distribution Effectiveness in Cooling Mode
  ,                                       !- Design Zone Air Distribution Effectiveness in Heating Mode
  No,                                     !- Account for Dedicated Outdoor Air System
  NeutralSupplyAir,                       !- Dedicated Outdoor Air System Control Strategy
  autosize,                               !- Dedicated Outdoor Air Low Setpoint Temperature for Design {C}
  autosize;                               !- Dedicated Outdoor Air High Setpoint Temperature for Design {C}

OS:ZoneHVAC:EquipmentList,
  {2717b6ae-e094-4091-81ac-fcdb11c3d2b1}, !- Handle
  Zone HVAC Equipment List 1,             !- Name
  {e356173b-dc84-4fc5-b37c-3358e11743c2}; !- Thermal Zone

OS:ThermalZone,
  {196dda93-1c2c-4cd0-a961-2965ef4e1d3e}, !- Handle
  garage zone,                            !- Name
  ,                                       !- Multiplier
  ,                                       !- Ceiling Height {m}
  ,                                       !- Volume {m3}
  ,                                       !- Floor Area {m2}
  ,                                       !- Zone Inside Convection Algorithm
  ,                                       !- Zone Outside Convection Algorithm
  ,                                       !- Zone Conditioning Equipment List Name
  {b5d5a371-55f4-4774-8fd9-20732f408888}, !- Zone Air Inlet Port List
  {28c54130-c3ec-4d4b-a541-0b6fa08334c6}, !- Zone Air Exhaust Port List
  {7de7c92d-8450-42f3-a2b6-45a01202ed5c}, !- Zone Air Node Name
  {27165c68-ac6c-4736-aa78-3d9bc9aa0cbe}, !- Zone Return Air Port List
  ,                                       !- Primary Daylighting Control Name
  ,                                       !- Fraction of Zone Controlled by Primary Daylighting Control
  ,                                       !- Secondary Daylighting Control Name
  ,                                       !- Fraction of Zone Controlled by Secondary Daylighting Control
  ,                                       !- Illuminance Map Name
  ,                                       !- Group Rendering Name
  ,                                       !- Thermostat Name
  No;                                     !- Use Ideal Air Loads

OS:Node,
  {07bab2ff-f05f-4ad5-a82f-5da23d8c5ddd}, !- Handle
  Node 2,                                 !- Name
  {7de7c92d-8450-42f3-a2b6-45a01202ed5c}, !- Inlet Port
  ;                                       !- Outlet Port

OS:Connection,
  {7de7c92d-8450-42f3-a2b6-45a01202ed5c}, !- Handle
  {34c692a5-3c02-481f-b205-cf690c56a2f0}, !- Name
  {196dda93-1c2c-4cd0-a961-2965ef4e1d3e}, !- Source Object
  11,                                     !- Outlet Port
  {07bab2ff-f05f-4ad5-a82f-5da23d8c5ddd}, !- Target Object
  2;                                      !- Inlet Port

OS:PortList,
  {b5d5a371-55f4-4774-8fd9-20732f408888}, !- Handle
  {67d81648-098b-4248-89ca-a898a04587e6}, !- Name
  {196dda93-1c2c-4cd0-a961-2965ef4e1d3e}; !- HVAC Component

OS:PortList,
  {28c54130-c3ec-4d4b-a541-0b6fa08334c6}, !- Handle
  {4337365e-0170-4620-943e-e55fce202cc5}, !- Name
  {196dda93-1c2c-4cd0-a961-2965ef4e1d3e}; !- HVAC Component

OS:PortList,
  {27165c68-ac6c-4736-aa78-3d9bc9aa0cbe}, !- Handle
  {cb4c5d66-4fa7-4c53-bb60-533d30797db5}, !- Name
  {196dda93-1c2c-4cd0-a961-2965ef4e1d3e}; !- HVAC Component

OS:Sizing:Zone,
  {6f838a7e-76bd-4792-b4b0-10c98a7df127}, !- Handle
  {196dda93-1c2c-4cd0-a961-2965ef4e1d3e}, !- Zone or ZoneList Name
  SupplyAirTemperature,                   !- Zone Cooling Design Supply Air Temperature Input Method
  14,                                     !- Zone Cooling Design Supply Air Temperature {C}
  11.11,                                  !- Zone Cooling Design Supply Air Temperature Difference {deltaC}
  SupplyAirTemperature,                   !- Zone Heating Design Supply Air Temperature Input Method
  40,                                     !- Zone Heating Design Supply Air Temperature {C}
  11.11,                                  !- Zone Heating Design Supply Air Temperature Difference {deltaC}
  0.0085,                                 !- Zone Cooling Design Supply Air Humidity Ratio {kg-H2O/kg-air}
  0.008,                                  !- Zone Heating Design Supply Air Humidity Ratio {kg-H2O/kg-air}
  ,                                       !- Zone Heating Sizing Factor
  ,                                       !- Zone Cooling Sizing Factor
  DesignDay,                              !- Cooling Design Air Flow Method
  ,                                       !- Cooling Design Air Flow Rate {m3/s}
  ,                                       !- Cooling Minimum Air Flow per Zone Floor Area {m3/s-m2}
  ,                                       !- Cooling Minimum Air Flow {m3/s}
  ,                                       !- Cooling Minimum Air Flow Fraction
  DesignDay,                              !- Heating Design Air Flow Method
  ,                                       !- Heating Design Air Flow Rate {m3/s}
  ,                                       !- Heating Maximum Air Flow per Zone Floor Area {m3/s-m2}
  ,                                       !- Heating Maximum Air Flow {m3/s}
  ,                                       !- Heating Maximum Air Flow Fraction
  ,                                       !- Design Zone Air Distribution Effectiveness in Cooling Mode
  ,                                       !- Design Zone Air Distribution Effectiveness in Heating Mode
  No,                                     !- Account for Dedicated Outdoor Air System
  NeutralSupplyAir,                       !- Dedicated Outdoor Air System Control Strategy
  autosize,                               !- Dedicated Outdoor Air Low Setpoint Temperature for Design {C}
  autosize;                               !- Dedicated Outdoor Air High Setpoint Temperature for Design {C}

OS:ZoneHVAC:EquipmentList,
  {99995637-c69d-4321-ab26-cd20aaed7d8c}, !- Handle
  Zone HVAC Equipment List 2,             !- Name
  {196dda93-1c2c-4cd0-a961-2965ef4e1d3e}; !- Thermal Zone

OS:Space,
  {a0f06c6a-3d1e-4010-bf23-0514e99dae00}, !- Handle
  garage space,                           !- Name
  {82336f43-8db3-4b2d-96ac-4097911e30fe}, !- Space Type Name
  ,                                       !- Default Construction Set Name
  ,                                       !- Default Schedule Set Name
  -0,                                     !- Direction of Relative North {deg}
  0,                                      !- X Origin {m}
  0,                                      !- Y Origin {m}
  0,                                      !- Z Origin {m}
  ,                                       !- Building Story Name
  {196dda93-1c2c-4cd0-a961-2965ef4e1d3e}; !- Thermal Zone Name

OS:Surface,
  {3e5ffbf6-63d8-43fd-bd5b-1aa8bd912e6c}, !- Handle
  Surface 1,                              !- Name
  Floor,                                  !- Surface Type
  ,                                       !- Construction Name
  {a0f06c6a-3d1e-4010-bf23-0514e99dae00}, !- Space Name
  Foundation,                             !- Outside Boundary Condition
  ,                                       !- Outside Boundary Condition Object
  NoSun,                                  !- Sun Exposure
  NoWind,                                 !- Wind Exposure
  ,                                       !- View Factor to Ground
  ,                                       !- Number of Vertices
  5.57695129776527, -3.048, 0,            !- X,Y,Z Vertex 1 {m}
  5.57695129776527, 3.048, 0,             !- X,Y,Z Vertex 2 {m}
  11.6729512977653, 3.048, 0,             !- X,Y,Z Vertex 3 {m}
  11.6729512977653, -3.048, 0;            !- X,Y,Z Vertex 4 {m}

OS:Surface,
  {763de30b-399f-46e2-ae5c-c6fbd2cae041}, !- Handle
  Surface 2,                              !- Name
  Wall,                                   !- Surface Type
  ,                                       !- Construction Name
  {a0f06c6a-3d1e-4010-bf23-0514e99dae00}, !- Space Name
  Surface,                                !- Outside Boundary Condition
  {cbe8deef-16dc-4715-a48c-daeb3d80fea5}, !- Outside Boundary Condition Object
  NoSun,                                  !- Sun Exposure
  NoWind,                                 !- Wind Exposure
  ,                                       !- View Factor to Ground
  ,                                       !- Number of Vertices
  5.57695129776527, 3.048, 2.4384,        !- X,Y,Z Vertex 1 {m}
  5.57695129776527, 3.048, 0,             !- X,Y,Z Vertex 2 {m}
  5.57695129776527, 0, 0,                 !- X,Y,Z Vertex 3 {m}
  5.57695129776527, 0, 2.4384;            !- X,Y,Z Vertex 4 {m}

OS:Surface,
  {30ab10c5-f0b0-4479-8b83-f14cee4cbf5b}, !- Handle
  Surface 3,                              !- Name
  Wall,                                   !- Surface Type
  ,                                       !- Construction Name
  {a0f06c6a-3d1e-4010-bf23-0514e99dae00}, !- Space Name
  Surface,                                !- Outside Boundary Condition
  {0d25c60d-2a92-4d24-89dc-5dbed4073d1e}, !- Outside Boundary Condition Object
  NoSun,                                  !- Sun Exposure
  NoWind,                                 !- Wind Exposure
  ,                                       !- View Factor to Ground
  ,                                       !- Number of Vertices
  11.6729512977653, 3.048, 2.4384,        !- X,Y,Z Vertex 1 {m}
  11.6729512977653, 3.048, 0,             !- X,Y,Z Vertex 2 {m}
  5.57695129776527, 3.048, 0,             !- X,Y,Z Vertex 3 {m}
  5.57695129776527, 3.048, 2.4384;        !- X,Y,Z Vertex 4 {m}

OS:Surface,
  {3f8a0554-1e8b-4937-b8fe-e596131d7920}, !- Handle
  Surface 4,                              !- Name
  Wall,                                   !- Surface Type
  ,                                       !- Construction Name
  {a0f06c6a-3d1e-4010-bf23-0514e99dae00}, !- Space Name
  Outdoors,                               !- Outside Boundary Condition
  ,                                       !- Outside Boundary Condition Object
  SunExposed,                             !- Sun Exposure
  WindExposed,                            !- Wind Exposure
  ,                                       !- View Factor to Ground
  ,                                       !- Number of Vertices
  11.6729512977653, -3.048, 2.4384,       !- X,Y,Z Vertex 1 {m}
  11.6729512977653, -3.048, 0,            !- X,Y,Z Vertex 2 {m}
  11.6729512977653, 3.048, 0,             !- X,Y,Z Vertex 3 {m}
  11.6729512977653, 3.048, 2.4384;        !- X,Y,Z Vertex 4 {m}

OS:Surface,
  {3e084006-21dc-47f5-8e39-1876b776b4dd}, !- Handle
  Surface 5,                              !- Name
  Wall,                                   !- Surface Type
  ,                                       !- Construction Name
  {a0f06c6a-3d1e-4010-bf23-0514e99dae00}, !- Space Name
  Outdoors,                               !- Outside Boundary Condition
  ,                                       !- Outside Boundary Condition Object
  SunExposed,                             !- Sun Exposure
  WindExposed,                            !- Wind Exposure
  ,                                       !- View Factor to Ground
  ,                                       !- Number of Vertices
  5.57695129776527, -3.048, 2.4384,       !- X,Y,Z Vertex 1 {m}
  5.57695129776527, -3.048, 0,            !- X,Y,Z Vertex 2 {m}
  11.6729512977653, -3.048, 0,            !- X,Y,Z Vertex 3 {m}
  11.6729512977653, -3.048, 2.4384;       !- X,Y,Z Vertex 4 {m}

OS:Surface,
  {b42002c6-37fa-435c-840d-ba5f67324204}, !- Handle
  Surface 6,                              !- Name
  RoofCeiling,                            !- Surface Type
  ,                                       !- Construction Name
  {a0f06c6a-3d1e-4010-bf23-0514e99dae00}, !- Space Name
  Surface,                                !- Outside Boundary Condition
  {cd3d92aa-1dcf-49e3-a37a-d29b83e2149f}, !- Outside Boundary Condition Object
  NoSun,                                  !- Sun Exposure
  NoWind,                                 !- Wind Exposure
  ,                                       !- View Factor to Ground
  ,                                       !- Number of Vertices
  11.6729512977653, -3.048, 2.4384,       !- X,Y,Z Vertex 1 {m}
  11.6729512977653, 3.048, 2.4384,        !- X,Y,Z Vertex 2 {m}
  5.57695129776527, 3.048, 2.4384,        !- X,Y,Z Vertex 3 {m}
  5.57695129776527, -3.048, 2.4384;       !- X,Y,Z Vertex 4 {m}

OS:SpaceType,
  {82336f43-8db3-4b2d-96ac-4097911e30fe}, !- Handle
  Space Type 1,                           !- Name
  ,                                       !- Default Construction Set Name
  ,                                       !- Default Schedule Set Name
  ,                                       !- Group Rendering Name
  ,                                       !- Design Specification Outdoor Air Object Name
  ,                                       !- Standards Building Type
  garage;                                 !- Standards Space Type

OS:Space,
  {051bad8e-8994-423b-8c22-38ae359ae28f}, !- Handle
  living space,                           !- Name
  {955e2dc8-81ea-44b8-9fe7-ba473b98af44}, !- Space Type Name
  ,                                       !- Default Construction Set Name
  ,                                       !- Default Schedule Set Name
  -0,                                     !- Direction of Relative North {deg}
  0,                                      !- X Origin {m}
  0,                                      !- Y Origin {m}
  0,                                      !- Z Origin {m}
  ,                                       !- Building Story Name
  {e356173b-dc84-4fc5-b37c-3358e11743c2}, !- Thermal Zone Name
  ,                                       !- Part of Total Floor Area
  ,                                       !- Design Specification Outdoor Air Object Name
  {bf041599-c0f5-422c-8429-39a9ceca1818}; !- Building Unit Name

OS:Surface,
  {ecc1c132-b947-4ba7-a0a4-9d94264dffd0}, !- Handle
  Surface 7,                              !- Name
  Floor,                                  !- Surface Type
  ,                                       !- Construction Name
  {051bad8e-8994-423b-8c22-38ae359ae28f}, !- Space Name
  Surface,                                !- Outside Boundary Condition
  {e69dc591-273a-41a7-b2b9-df631a4fc0a7}, !- Outside Boundary Condition Object
  NoSun,                                  !- Sun Exposure
  NoWind,                                 !- Wind Exposure
  ,                                       !- View Factor to Ground
  ,                                       !- Number of Vertices
  0, 0, 0,                                !- X,Y,Z Vertex 1 {m}
  0, 5.83647564888264, 0,                 !- X,Y,Z Vertex 2 {m}
  11.6729512977653, 5.83647564888264, 0,  !- X,Y,Z Vertex 3 {m}
  11.6729512977653, 3.048, 0,             !- X,Y,Z Vertex 4 {m}
  5.57695129776527, 3.048, 0,             !- X,Y,Z Vertex 5 {m}
  5.57695129776527, 0, 0;                 !- X,Y,Z Vertex 6 {m}

OS:Surface,
  {8d0abc4d-9bd5-4625-9e67-b4875a05dee1}, !- Handle
  Surface 8,                              !- Name
  Wall,                                   !- Surface Type
  ,                                       !- Construction Name
  {051bad8e-8994-423b-8c22-38ae359ae28f}, !- Space Name
  Outdoors,                               !- Outside Boundary Condition
  ,                                       !- Outside Boundary Condition Object
  SunExposed,                             !- Sun Exposure
  WindExposed,                            !- Wind Exposure
  ,                                       !- View Factor to Ground
  ,                                       !- Number of Vertices
  0, 5.83647564888264, 2.4384,            !- X,Y,Z Vertex 1 {m}
  0, 5.83647564888264, 0,                 !- X,Y,Z Vertex 2 {m}
  0, 0, 0,                                !- X,Y,Z Vertex 3 {m}
  0, 0, 2.4384;                           !- X,Y,Z Vertex 4 {m}

OS:Surface,
  {585b6f3a-d0fa-4b1b-a5b8-7d08782c3d52}, !- Handle
  Surface 9,                              !- Name
  Wall,                                   !- Surface Type
  ,                                       !- Construction Name
  {051bad8e-8994-423b-8c22-38ae359ae28f}, !- Space Name
  Outdoors,                               !- Outside Boundary Condition
  ,                                       !- Outside Boundary Condition Object
  SunExposed,                             !- Sun Exposure
  WindExposed,                            !- Wind Exposure
  ,                                       !- View Factor to Ground
  ,                                       !- Number of Vertices
  11.6729512977653, 5.83647564888264, 2.4384, !- X,Y,Z Vertex 1 {m}
  11.6729512977653, 5.83647564888264, 0,  !- X,Y,Z Vertex 2 {m}
  0, 5.83647564888264, 0,                 !- X,Y,Z Vertex 3 {m}
  0, 5.83647564888264, 2.4384;            !- X,Y,Z Vertex 4 {m}

OS:Surface,
  {26283551-6759-4d00-828d-38dca63c0490}, !- Handle
  Surface 10,                             !- Name
  Wall,                                   !- Surface Type
  ,                                       !- Construction Name
  {051bad8e-8994-423b-8c22-38ae359ae28f}, !- Space Name
  Outdoors,                               !- Outside Boundary Condition
  ,                                       !- Outside Boundary Condition Object
  SunExposed,                             !- Sun Exposure
  WindExposed,                            !- Wind Exposure
  ,                                       !- View Factor to Ground
  ,                                       !- Number of Vertices
  11.6729512977653, 3.048, 2.4384,        !- X,Y,Z Vertex 1 {m}
  11.6729512977653, 3.048, 0,             !- X,Y,Z Vertex 2 {m}
  11.6729512977653, 5.83647564888264, 0,  !- X,Y,Z Vertex 3 {m}
  11.6729512977653, 5.83647564888264, 2.4384; !- X,Y,Z Vertex 4 {m}

OS:Surface,
  {0d25c60d-2a92-4d24-89dc-5dbed4073d1e}, !- Handle
  Surface 11,                             !- Name
  Wall,                                   !- Surface Type
  ,                                       !- Construction Name
  {051bad8e-8994-423b-8c22-38ae359ae28f}, !- Space Name
  Surface,                                !- Outside Boundary Condition
  {30ab10c5-f0b0-4479-8b83-f14cee4cbf5b}, !- Outside Boundary Condition Object
  NoSun,                                  !- Sun Exposure
  NoWind,                                 !- Wind Exposure
  ,                                       !- View Factor to Ground
  ,                                       !- Number of Vertices
  5.57695129776527, 3.048, 2.4384,        !- X,Y,Z Vertex 1 {m}
  5.57695129776527, 3.048, 0,             !- X,Y,Z Vertex 2 {m}
  11.6729512977653, 3.048, 0,             !- X,Y,Z Vertex 3 {m}
  11.6729512977653, 3.048, 2.4384;        !- X,Y,Z Vertex 4 {m}

OS:Surface,
  {cbe8deef-16dc-4715-a48c-daeb3d80fea5}, !- Handle
  Surface 12,                             !- Name
  Wall,                                   !- Surface Type
  ,                                       !- Construction Name
  {051bad8e-8994-423b-8c22-38ae359ae28f}, !- Space Name
  Surface,                                !- Outside Boundary Condition
  {763de30b-399f-46e2-ae5c-c6fbd2cae041}, !- Outside Boundary Condition Object
  NoSun,                                  !- Sun Exposure
  NoWind,                                 !- Wind Exposure
  ,                                       !- View Factor to Ground
  ,                                       !- Number of Vertices
  5.57695129776527, 0, 2.4384,            !- X,Y,Z Vertex 1 {m}
  5.57695129776527, 0, 0,                 !- X,Y,Z Vertex 2 {m}
  5.57695129776527, 3.048, 0,             !- X,Y,Z Vertex 3 {m}
  5.57695129776527, 3.048, 2.4384;        !- X,Y,Z Vertex 4 {m}

OS:Surface,
  {884ac9a4-5558-40f4-94e3-ecf54abbce2b}, !- Handle
  Surface 13,                             !- Name
  Wall,                                   !- Surface Type
  ,                                       !- Construction Name
  {051bad8e-8994-423b-8c22-38ae359ae28f}, !- Space Name
  Outdoors,                               !- Outside Boundary Condition
  ,                                       !- Outside Boundary Condition Object
  SunExposed,                             !- Sun Exposure
  WindExposed,                            !- Wind Exposure
  ,                                       !- View Factor to Ground
  ,                                       !- Number of Vertices
  0, 0, 2.4384,                           !- X,Y,Z Vertex 1 {m}
  0, 0, 0,                                !- X,Y,Z Vertex 2 {m}
  5.57695129776527, 0, 0,                 !- X,Y,Z Vertex 3 {m}
  5.57695129776527, 0, 2.4384;            !- X,Y,Z Vertex 4 {m}

OS:Surface,
  {de1658d7-c8c5-4ebb-acd9-865674f5e053}, !- Handle
  Surface 14,                             !- Name
  RoofCeiling,                            !- Surface Type
  ,                                       !- Construction Name
  {051bad8e-8994-423b-8c22-38ae359ae28f}, !- Space Name
  Surface,                                !- Outside Boundary Condition