!- NOTE: Auto-generated from /test/osw_files/MF_40units_4story_UB_3Beds_2Baths_Denver.osw

OS:Version,
  {72f9a61f-c9a4-4ee9-b2a8-de57ae18a054}, !- Handle
  2.7.0;                                  !- Version Identifier

OS:Building,
  {30f2991e-df33-451c-9137-e62b638f91db}, !- Handle
  Building 1,                             !- Name
  ,                                       !- Building Sector Type
  0,                                      !- North Axis {deg}
  ,                                       !- Nominal Floor to Floor Height {m}
  ,                                       !- Space Type Name
  ,                                       !- Default Construction Set Name
  ,                                       !- Default Schedule Set Name
  5,                                      !- Standards Number of Stories
  4,                                      !- Standards Number of Above Ground Stories
  ,                                       !- Standards Template
  multifamily,                            !- Standards Building Type
  40;                                     !- Standards Number of Living Units

OS:Facility,
  {0349577f-8570-472f-b3fb-ec1d1d16274a}; !- Handle

OS:Site,
  {8960c8be-7cf9-4136-99aa-770a27268c34}, !- Handle
  Denver Intl Ap_CO_USA,                  !- Name
  39.83,                                  !- Latitude {deg}
  -104.65,                                !- Longitude {deg}
  -7,                                     !- Time Zone {hr}
  1650,                                   !- Elevation {m}
  ;                                       !- Terrain

OS:SimulationControl,
  {16e6d46c-1dc8-41a2-b87d-0f49b67d2be0}, !- Handle
  ,                                       !- Do Zone Sizing Calculation
  ,                                       !- Do System Sizing Calculation
  ,                                       !- Do Plant Sizing Calculation
  No;                                     !- Run Simulation for Sizing Periods

OS:Sizing:Parameters,
  {de0ee910-5d3c-4050-881a-fc32bbb40f6e}, !- Handle
  1.25,                                   !- Heating Sizing Factor
  1.15;                                   !- Cooling Sizing Factor

OS:Timestep,
  {ef9b868c-dd00-40ed-9d4b-ec3e43d2e9e4}, !- Handle
  6;                                      !- Number of Timesteps per Hour

OS:ShadowCalculation,
  {a5c80566-312b-4801-854a-f5c523648716}, !- Handle
  20,                                     !- Calculation Frequency
  200;                                    !- Maximum Figures in Shadow Overlap Calculations

OS:HeatBalanceAlgorithm,
  {86e4a9a9-e767-4dff-9f30-6a4b0394afdf}, !- Handle
  ConductionTransferFunction,             !- Algorithm
  200;                                    !- Surface Temperature Upper Limit {C}

OS:RunPeriod,
  {d42a548f-654d-4168-97fd-3f0e0e983eae}, !- Handle
  Run Period 1,                           !- Name
  1,                                      !- Begin Month
  1,                                      !- Begin Day of Month
  12,                                     !- End Month
  31,                                     !- End Day of Month
  ,                                       !- Use Weather File Holidays and Special Days
  ,                                       !- Use Weather File Daylight Saving Period
  ,                                       !- Apply Weekend Holiday Rule
  ,                                       !- Use Weather File Rain Indicators
  ,                                       !- Use Weather File Snow Indicators
  ;                                       !- Number of Times Runperiod to be Repeated

OS:LifeCycleCost:Parameters,
  {07df6f63-3724-4458-ac42-9d2f37fa49fd}, !- Handle
  ,                                       !- Analysis Type
  ,                                       !- Discounting Convention
  ,                                       !- Inflation Approach
  ,                                       !- Real Discount Rate
  ,                                       !- Nominal Discount Rate
  ,                                       !- Inflation
  ,                                       !- Base Date Month
  ,                                       !- Base Date Year
  ,                                       !- Service Date Month
  ,                                       !- Service Date Year
  ;                                       !- Length of Study Period in Years

OS:SurfaceConvectionAlgorithm:Outside,
  {d65a5876-0255-40af-afe2-730e2225daee}, !- Handle
  DOE-2;                                  !- Algorithm

OS:SurfaceConvectionAlgorithm:Inside,
  {b0770649-fc87-4eac-a212-ef461565222b}, !- Handle
  TARP;                                   !- Algorithm

OS:ZoneCapacitanceMultiplier:ResearchSpecial,
  {a9f8170a-17f3-40ba-b706-6339b3d2c189}, !- Handle
  ,                                       !- Temperature Capacity Multiplier
  15,                                     !- Humidity Capacity Multiplier
  ;                                       !- Carbon Dioxide Capacity Multiplier

OS:ThermalZone,
  {1f9d6ebc-bd2a-408e-896e-745fef1762e1}, !- Handle
  living zone,                            !- Name
  ,                                       !- Multiplier
  ,                                       !- Ceiling Height {m}
  ,                                       !- Volume {m3}
  ,                                       !- Floor Area {m2}
  ,                                       !- Zone Inside Convection Algorithm
  ,                                       !- Zone Outside Convection Algorithm
  ,                                       !- Zone Conditioning Equipment List Name
  {cd733e6b-42c0-4e43-a80d-f54751beb2d0}, !- Zone Air Inlet Port List
  {a9da3c30-aba7-4004-823e-e25b56caeb24}, !- Zone Air Exhaust Port List
  {6ef6da99-1998-41a1-bf5f-423a4f9439d8}, !- Zone Air Node Name
  {3bb6dccf-af58-4dfc-aae5-9b191e197b7f}, !- Zone Return Air Port List
  ,                                       !- Primary Daylighting Control Name
  ,                                       !- Fraction of Zone Controlled by Primary Daylighting Control
  ,                                       !- Secondary Daylighting Control Name
  ,                                       !- Fraction of Zone Controlled by Secondary Daylighting Control
  ,                                       !- Illuminance Map Name
  ,                                       !- Group Rendering Name
  ,                                       !- Thermostat Name
  No;                                     !- Use Ideal Air Loads

OS:Node,
  {ae3ef79c-4c9d-4c22-bf4c-681733034ef3}, !- Handle
  Node 1,                                 !- Name
  {6ef6da99-1998-41a1-bf5f-423a4f9439d8}, !- Inlet Port
  ;                                       !- Outlet Port

OS:Connection,
  {6ef6da99-1998-41a1-bf5f-423a4f9439d8}, !- Handle
  {b3768555-b4bf-4a67-badc-e8b8a5bbf281}, !- Name
  {1f9d6ebc-bd2a-408e-896e-745fef1762e1}, !- Source Object
  11,                                     !- Outlet Port
  {ae3ef79c-4c9d-4c22-bf4c-681733034ef3}, !- Target Object
  2;                                      !- Inlet Port

OS:PortList,
  {cd733e6b-42c0-4e43-a80d-f54751beb2d0}, !- Handle
  {d6943aff-bbcc-4654-9bb7-fa424d9953c8}, !- Name
  {1f9d6ebc-bd2a-408e-896e-745fef1762e1}; !- HVAC Component

OS:PortList,
  {a9da3c30-aba7-4004-823e-e25b56caeb24}, !- Handle
  {5b810b31-932e-4507-aadf-c9bcdf931582}, !- Name
  {1f9d6ebc-bd2a-408e-896e-745fef1762e1}; !- HVAC Component

OS:PortList,
  {3bb6dccf-af58-4dfc-aae5-9b191e197b7f}, !- Handle
  {fb190990-05e9-43dc-9e90-32de5dbb87ac}, !- Name
  {1f9d6ebc-bd2a-408e-896e-745fef1762e1}; !- HVAC Component

OS:Sizing:Zone,
  {66951ce4-13bd-4041-b806-67ddd8730772}, !- Handle
  {1f9d6ebc-bd2a-408e-896e-745fef1762e1}, !- Zone or ZoneList Name
  SupplyAirTemperature,                   !- Zone Cooling Design Supply Air Temperature Input Method
  14,                                     !- Zone Cooling Design Supply Air Temperature {C}
  11.11,                                  !- Zone Cooling Design Supply Air Temperature Difference {deltaC}
  SupplyAirTemperature,                   !- Zone Heating Design Supply Air Temperature Input Method
  40,                                     !- Zone Heating Design Supply Air Temperature {C}
  11.11,                                  !- Zone Heating Design Supply Air Temperature Difference {deltaC}
  0.0085,                                 !- Zone Cooling Design Supply Air Humidity Ratio {kg-H2O/kg-air}
  0.008,                                  !- Zone Heating Design Supply Air Humidity Ratio {kg-H2O/kg-air}
  ,                                       !- Zone Heating Sizing Factor
  ,                                       !- Zone Cooling Sizing Factor
  DesignDay,                              !- Cooling Design Air Flow Method
  ,                                       !- Cooling Design Air Flow Rate {m3/s}
  ,                                       !- Cooling Minimum Air Flow per Zone Floor Area {m3/s-m2}
  ,                                       !- Cooling Minimum Air Flow {m3/s}
  ,                                       !- Cooling Minimum Air Flow Fraction
  DesignDay,                              !- Heating Design Air Flow Method
  ,                                       !- Heating Design Air Flow Rate {m3/s}
  ,                                       !- Heating Maximum Air Flow per Zone Floor Area {m3/s-m2}
  ,                                       !- Heating Maximum Air Flow {m3/s}
  ,                                       !- Heating Maximum Air Flow Fraction
  ,                                       !- Design Zone Air Distribution Effectiveness in Cooling Mode
  ,                                       !- Design Zone Air Distribution Effectiveness in Heating Mode
  No,                                     !- Account for Dedicated Outdoor Air System
  NeutralSupplyAir,                       !- Dedicated Outdoor Air System Control Strategy
  autosize,                               !- Dedicated Outdoor Air Low Setpoint Temperature for Design {C}
  autosize;                               !- Dedicated Outdoor Air High Setpoint Temperature for Design {C}

OS:ZoneHVAC:EquipmentList,
  {b31fb8bf-77a4-42f9-887b-1e53ae9232c2}, !- Handle
  Zone HVAC Equipment List 1,             !- Name
  {1f9d6ebc-bd2a-408e-896e-745fef1762e1}; !- Thermal Zone

OS:Space,
  {b1d4639c-d94a-4b78-80ea-9abbdb763abb}, !- Handle
  living space,                           !- Name
  {224cf572-4497-43c1-9f23-f25f783ce5ed}, !- Space Type Name
  ,                                       !- Default Construction Set Name
  ,                                       !- Default Schedule Set Name
  ,                                       !- Direction of Relative North {deg}
  ,                                       !- X Origin {m}
  ,                                       !- Y Origin {m}
  ,                                       !- Z Origin {m}
  ,                                       !- Building Story Name
  {1f9d6ebc-bd2a-408e-896e-745fef1762e1}, !- Thermal Zone Name
  ,                                       !- Part of Total Floor Area
  ,                                       !- Design Specification Outdoor Air Object Name
  {486eccf9-10bb-4cfb-a924-3678f877bc76}; !- Building Unit Name

OS:Surface,
  {19259104-03de-496c-899c-cf1c7590b1f7}, !- Handle
  Surface 1,                              !- Name
  Floor,                                  !- Surface Type
  ,                                       !- Construction Name
  {b1d4639c-d94a-4b78-80ea-9abbdb763abb}, !- Space Name
  Surface,                                !- Outside Boundary Condition
  {d97d0a0d-894c-416d-a6ae-2fc2110a3df8}, !- Outside Boundary Condition Object
  NoSun,                                  !- Sun Exposure
  NoWind,                                 !- Wind Exposure
  ,                                       !- View Factor to Ground
  ,                                       !- Number of Vertices
  0, -12.9315688143396, 0,                !- X,Y,Z Vertex 1 {m}
  0, 0, 0,                                !- X,Y,Z Vertex 2 {m}
  6.46578440716979, 0, 0,                 !- X,Y,Z Vertex 3 {m}
  6.46578440716979, -12.9315688143396, 0; !- X,Y,Z Vertex 4 {m}

OS:Surface,
  {d654308e-7401-47fe-a1fe-051cb8976b24}, !- Handle
  Surface 2,                              !- Name
  Wall,                                   !- Surface Type
  ,                                       !- Construction Name
  {b1d4639c-d94a-4b78-80ea-9abbdb763abb}, !- Space Name
  Outdoors,                               !- Outside Boundary Condition
  ,                                       !- Outside Boundary Condition Object
  SunExposed,                             !- Sun Exposure
  WindExposed,                            !- Wind Exposure
  ,                                       !- View Factor to Ground
  ,                                       !- Number of Vertices
  0, 0, 2.4384,                           !- X,Y,Z Vertex 1 {m}
  0, 0, 0,                                !- X,Y,Z Vertex 2 {m}
  0, -12.9315688143396, 0,                !- X,Y,Z Vertex 3 {m}
  0, -12.9315688143396, 2.4384;           !- X,Y,Z Vertex 4 {m}

OS:Surface,
  {4339b7d8-6e95-4af6-939c-6660f92ef247}, !- Handle
  Surface 3,                              !- Name
  Wall,                                   !- Surface Type
  ,                                       !- Construction Name
  {b1d4639c-d94a-4b78-80ea-9abbdb763abb}, !- Space Name
  Adiabatic,                              !- Outside Boundary Condition
  ,                                       !- Outside Boundary Condition Object
  NoSun,                                  !- Sun Exposure
  NoWind,                                 !- Wind Exposure
  ,                                       !- View Factor to Ground
  ,                                       !- Number of Vertices
  6.46578440716979, 0, 2.4384,            !- X,Y,Z Vertex 1 {m}
  6.46578440716979, 0, 0,                 !- X,Y,Z Vertex 2 {m}
  0, 0, 0,                                !- X,Y,Z Vertex 3 {m}
  0, 0, 2.4384;                           !- X,Y,Z Vertex 4 {m}

OS:Surface,
  {d4595d77-9110-42bc-890a-f33ec0ad049c}, !- Handle
  Surface 4,                              !- Name
  Wall,                                   !- Surface Type
  ,                                       !- Construction Name
  {b1d4639c-d94a-4b78-80ea-9abbdb763abb}, !- Space Name
  Surface,                                !- Outside Boundary Condition
  {c7953efc-012b-444d-be0d-6c8a6ca45f74}, !- Outside Boundary Condition Object
  NoSun,                                  !- Sun Exposure
  NoWind,                                 !- Wind Exposure
  ,                                       !- View Factor to Ground
  ,                                       !- Number of Vertices
  6.46578440716979, -12.9315688143396, 2.4384, !- X,Y,Z Vertex 1 {m}
  6.46578440716979, -12.9315688143396, 0, !- X,Y,Z Vertex 2 {m}
  6.46578440716979, 0, 0,                 !- X,Y,Z Vertex 3 {m}
  6.46578440716979, 0, 2.4384;            !- X,Y,Z Vertex 4 {m}

OS:Surface,
  {c3d279d6-0d6d-4b75-8eed-771686274179}, !- Handle
  Surface 5,                              !- Name
  Wall,                                   !- Surface Type
  ,                                       !- Construction Name
  {b1d4639c-d94a-4b78-80ea-9abbdb763abb}, !- Space Name
  Outdoors,                               !- Outside Boundary Condition
  ,                                       !- Outside Boundary Condition Object
  SunExposed,                             !- Sun Exposure
  WindExposed,                            !- Wind Exposure
  ,                                       !- View Factor to Ground
  ,                                       !- Number of Vertices
  0, -12.9315688143396, 2.4384,           !- X,Y,Z Vertex 1 {m}
  0, -12.9315688143396, 0,                !- X,Y,Z Vertex 2 {m}
  6.46578440716979, -12.9315688143396, 0, !- X,Y,Z Vertex 3 {m}
  6.46578440716979, -12.9315688143396, 2.4384; !- X,Y,Z Vertex 4 {m}

OS:Surface,
  {da3872c9-3514-48c9-a5be-cd48d7eea418}, !- Handle
  Surface 6,                              !- Name
  RoofCeiling,                            !- Surface Type
  ,                                       !- Construction Name
  {b1d4639c-d94a-4b78-80ea-9abbdb763abb}, !- Space Name
  Surface,                                !- Outside Boundary Condition
  {1c3f2076-e3bf-46d3-b8b9-408fe27c71d5}, !- Outside Boundary Condition Object
  NoSun,                                  !- Sun Exposure
  NoWind,                                 !- Wind Exposure
  ,                                       !- View Factor to Ground
  ,                                       !- Number of Vertices
  6.46578440716979, -12.9315688143396, 2.4384, !- X,Y,Z Vertex 1 {m}
  6.46578440716979, 0, 2.4384,            !- X,Y,Z Vertex 2 {m}
  0, 0, 2.4384,                           !- X,Y,Z Vertex 3 {m}
  0, -12.9315688143396, 2.4384;           !- X,Y,Z Vertex 4 {m}

OS:SpaceType,
  {224cf572-4497-43c1-9f23-f25f783ce5ed}, !- Handle
  Space Type 1,                           !- Name
  ,                                       !- Default Construction Set Name
  ,                                       !- Default Schedule Set Name
  ,                                       !- Group Rendering Name
  ,                                       !- Design Specification Outdoor Air Object Name
  ,                                       !- Standards Template
  ,                                       !- Standards Building Type
  living;                                 !- Standards Space Type

OS:ThermalZone,
  {9c9f5144-ad4e-4430-ae72-39cdc2cc868c}, !- Handle
  living zone|unit 2,                     !- Name
  ,                                       !- Multiplier
  ,                                       !- Ceiling Height {m}
  ,                                       !- Volume {m3}
  ,                                       !- Floor Area {m2}
  ,                                       !- Zone Inside Convection Algorithm
  ,                                       !- Zone Outside Convection Algorithm
  ,                                       !- Zone Conditioning Equipment List Name
  {2df3330c-f0fb-4dc7-ad93-712d478ecb85}, !- Zone Air Inlet Port List
  {64fe53a2-1b7d-4561-b136-d0db513cd1ad}, !- Zone Air Exhaust Port List
  {44bc15f9-c483-4b5e-bb81-53d776fbed88}, !- Zone Air Node Name
  {348ab459-4339-422e-af85-7474302e1043}, !- Zone Return Air Port List
  ,                                       !- Primary Daylighting Control Name
  ,                                       !- Fraction of Zone Controlled by Primary Daylighting Control
  ,                                       !- Secondary Daylighting Control Name
  ,                                       !- Fraction of Zone Controlled by Secondary Daylighting Control
  ,                                       !- Illuminance Map Name
  ,                                       !- Group Rendering Name
  ,                                       !- Thermostat Name
  No;                                     !- Use Ideal Air Loads

OS:Node,
  {45e99a80-e49e-41aa-9177-8b2d1fd23172}, !- Handle
  Node 2,                                 !- Name
  {44bc15f9-c483-4b5e-bb81-53d776fbed88}, !- Inlet Port
  ;                                       !- Outlet Port

OS:Connection,
  {44bc15f9-c483-4b5e-bb81-53d776fbed88}, !- Handle
  {ca328415-fc79-4e4d-a458-c95b68dd1ae1}, !- Name
  {9c9f5144-ad4e-4430-ae72-39cdc2cc868c}, !- Source Object
  11,                                     !- Outlet Port
  {45e99a80-e49e-41aa-9177-8b2d1fd23172}, !- Target Object
  2;                                      !- Inlet Port

OS:PortList,
  {2df3330c-f0fb-4dc7-ad93-712d478ecb85}, !- Handle
  {f8f27e35-5032-45d7-8ec6-0aa64a549400}, !- Name
  {9c9f5144-ad4e-4430-ae72-39cdc2cc868c}; !- HVAC Component

OS:PortList,
  {64fe53a2-1b7d-4561-b136-d0db513cd1ad}, !- Handle
  {8e5faf8b-1828-4984-97c1-7ae550b64154}, !- Name
  {9c9f5144-ad4e-4430-ae72-39cdc2cc868c}; !- HVAC Component

OS:PortList,
  {348ab459-4339-422e-af85-7474302e1043}, !- Handle
  {7e1e8cdb-c1be-4136-a975-211c701baf88}, !- Name
  {9c9f5144-ad4e-4430-ae72-39cdc2cc868c}; !- HVAC Component

OS:Sizing:Zone,
  {ae209291-96d8-41a0-8327-fcdbce9e8621}, !- Handle
  {9c9f5144-ad4e-4430-ae72-39cdc2cc868c}, !- Zone or ZoneList Name
  SupplyAirTemperature,                   !- Zone Cooling Design Supply Air Temperature Input Method
  14,                                     !- Zone Cooling Design Supply Air Temperature {C}
  11.11,                                  !- Zone Cooling Design Supply Air Temperature Difference {deltaC}
  SupplyAirTemperature,                   !- Zone Heating Design Supply Air Temperature Input Method
  40,                                     !- Zone Heating Design Supply Air Temperature {C}
  11.11,                                  !- Zone Heating Design Supply Air Temperature Difference {deltaC}
  0.0085,                                 !- Zone Cooling Design Supply Air Humidity Ratio {kg-H2O/kg-air}
  0.008,                                  !- Zone Heating Design Supply Air Humidity Ratio {kg-H2O/kg-air}
  ,                                       !- Zone Heating Sizing Factor
  ,                                       !- Zone Cooling Sizing Factor
  DesignDay,                              !- Cooling Design Air Flow Method
  ,                                       !- Cooling Design Air Flow Rate {m3/s}
  ,                                       !- Cooling Minimum Air Flow per Zone Floor Area {m3/s-m2}
  ,                                       !- Cooling Minimum Air Flow {m3/s}
  ,                                       !- Cooling Minimum Air Flow Fraction
  DesignDay,                              !- Heating Design Air Flow Method
  ,                                       !- Heating Design Air Flow Rate {m3/s}
  ,                                       !- Heating Maximum Air Flow per Zone Floor Area {m3/s-m2}
  ,                                       !- Heating Maximum Air Flow {m3/s}
  ,                                       !- Heating Maximum Air Flow Fraction
  ,                                       !- Design Zone Air Distribution Effectiveness in Cooling Mode
  ,                                       !- Design Zone Air Distribution Effectiveness in Heating Mode
  No,                                     !- Account for Dedicated Outdoor Air System
  NeutralSupplyAir,                       !- Dedicated Outdoor Air System Control Strategy
  autosize,                               !- Dedicated Outdoor Air Low Setpoint Temperature for Design {C}
  autosize;                               !- Dedicated Outdoor Air High Setpoint Temperature for Design {C}

OS:ZoneHVAC:EquipmentList,
  {4ed41795-ef74-458d-9aa6-053d2a9ea61c}, !- Handle
  Zone HVAC Equipment List 2,             !- Name
  {9c9f5144-ad4e-4430-ae72-39cdc2cc868c}; !- Thermal Zone

OS:Space,
  {c9918b4c-e96f-41cd-b735-5c80bbf58097}, !- Handle
  living space|unit 2,                    !- Name
  {224cf572-4497-43c1-9f23-f25f783ce5ed}, !- Space Type Name
  ,                                       !- Default Construction Set Name
  ,                                       !- Default Schedule Set Name
  ,                                       !- Direction of Relative North {deg}
  ,                                       !- X Origin {m}
  ,                                       !- Y Origin {m}
  ,                                       !- Z Origin {m}
  ,                                       !- Building Story Name
  {9c9f5144-ad4e-4430-ae72-39cdc2cc868c}, !- Thermal Zone Name
  ,                                       !- Part of Total Floor Area
  ,                                       !- Design Specification Outdoor Air Object Name
  {fd1db94a-2b13-4abe-a3ee-785960d37687}; !- Building Unit Name

OS:Surface,
  {ba8a9c92-d5ed-45a9-8ebe-1589fdb7eadc}, !- Handle
  Surface 7,                              !- Name
  Floor,                                  !- Surface Type
  ,                                       !- Construction Name
  {c9918b4c-e96f-41cd-b735-5c80bbf58097}, !- Space Name
  Surface,                                !- Outside Boundary Condition
  {f7f79871-9154-403a-9349-23735d69af7d}, !- Outside Boundary Condition Object
  NoSun,                                  !- Sun Exposure
  NoWind,                                 !- Wind Exposure
  ,                                       !- View Factor to Ground
  ,                                       !- Number of Vertices
  0, 3.048, 0,                            !- X,Y,Z Vertex 1 {m}
  0, 15.9795688143396, 0,                 !- X,Y,Z Vertex 2 {m}
  6.46578440716979, 15.9795688143396, 0,  !- X,Y,Z Vertex 3 {m}
  6.46578440716979, 3.048, 0;             !- X,Y,Z Vertex 4 {m}

OS:Surface,
  {5f383006-00a9-49c8-8d69-14b07ce3a9e6}, !- Handle
  Surface 8,                              !- Name
  Wall,                                   !- Surface Type
  ,                                       !- Construction Name
  {c9918b4c-e96f-41cd-b735-5c80bbf58097}, !- Space Name
  Outdoors,                               !- Outside Boundary Condition
  ,                                       !- Outside Boundary Condition Object
  SunExposed,                             !- Sun Exposure
  WindExposed,                            !- Wind Exposure
  ,                                       !- View Factor to Ground
  ,                                       !- Number of Vertices
  0, 15.9795688143396, 2.4384,            !- X,Y,Z Vertex 1 {m}
  0, 15.9795688143396, 0,                 !- X,Y,Z Vertex 2 {m}
  0, 3.048, 0,                            !- X,Y,Z Vertex 3 {m}
  0, 3.048, 2.4384;                       !- X,Y,Z Vertex 4 {m}

OS:Surface,
  {ce353cb5-aa2b-4215-bded-3c5cbe325d51}, !- Handle
  Surface 9,                              !- Name
  Wall,                                   !- Surface Type
  ,                                       !- Construction Name
  {c9918b4c-e96f-41cd-b735-5c80bbf58097}, !- Space Name
  Outdoors,                               !- Outside Boundary Condition
  ,                                       !- Outside Boundary Condition Object
  SunExposed,                             !- Sun Exposure
  WindExposed,                            !- Wind Exposure
  ,                                       !- View Factor to Ground
  ,                                       !- Number of Vertices
  6.46578440716979, 15.9795688143396, 2.4384, !- X,Y,Z Vertex 1 {m}
  6.46578440716979, 15.9795688143396, 0,  !- X,Y,Z Vertex 2 {m}
  0, 15.9795688143396, 0,                 !- X,Y,Z Vertex 3 {m}
  0, 15.9795688143396, 2.4384;            !- X,Y,Z Vertex 4 {m}

OS:Surface,
  {0be517a9-bc08-4887-9840-aa23d51a764c}, !- Handle
  Surface 10,                             !- Name
  Wall,                                   !- Surface Type
  ,                                       !- Construction Name
  {c9918b4c-e96f-41cd-b735-5c80bbf58097}, !- Space Name
  Surface,                                !- Outside Boundary Condition
  {93b930ce-9791-4db9-abca-0a3ebf60a791}, !- Outside Boundary Condition Object
  NoSun,                                  !- Sun Exposure
  NoWind,                                 !- Wind Exposure
  ,                                       !- View Factor to Ground
  ,                                       !- Number of Vertices
  6.46578440716979, 3.048, 2.4384,        !- X,Y,Z Vertex 1 {m}
  6.46578440716979, 3.048, 0,             !- X,Y,Z Vertex 2 {m}
  6.46578440716979, 15.9795688143396, 0,  !- X,Y,Z Vertex 3 {m}
  6.46578440716979, 15.9795688143396, 2.4384; !- X,Y,Z Vertex 4 {m}

OS:Surface,
  {7bdd956f-33f0-471c-b3b1-0da1d67778e4}, !- Handle
  Surface 11,                             !- Name
  Wall,                                   !- Surface Type
  ,                                       !- Construction Name
  {c9918b4c-e96f-41cd-b735-5c80bbf58097}, !- Space Name
  Adiabatic,                              !- Outside Boundary Condition
  ,                                       !- Outside Boundary Condition Object
  NoSun,                                  !- Sun Exposure
  NoWind,                                 !- Wind Exposure
  ,                                       !- View Factor to Ground
  ,                                       !- Number of Vertices
  0, 3.048, 2.4384,                       !- X,Y,Z Vertex 1 {m}
  0, 3.048, 0,                            !- X,Y,Z Vertex 2 {m}
  6.46578440716979, 3.048, 0,             !- X,Y,Z Vertex 3 {m}
  6.46578440716979, 3.048, 2.4384;        !- X,Y,Z Vertex 4 {m}

OS:Surface,
  {1cf0cadb-8b88-4a8a-a00d-350d40e18222}, !- Handle
  Surface 12,                             !- Name
  RoofCeiling,                            !- Surface Type
  ,                                       !- Construction Name
  {c9918b4c-e96f-41cd-b735-5c80bbf58097}, !- Space Name
  Surface,                                !- Outside Boundary Condition
  {0d93462f-ab19-4ce1-b134-6d470e5b2652}, !- Outside Boundary Condition Object
  NoSun,                                  !- Sun Exposure
  NoWind,                                 !- Wind Exposure
  ,                                       !- View Factor to Ground
  ,                                       !- Number of Vertices
  6.46578440716979, 3.048, 2.4384,        !- X,Y,Z Vertex 1 {m}
  6.46578440716979, 15.9795688143396, 2.4384, !- X,Y,Z Vertex 2 {m}
  0, 15.9795688143396, 2.4384,            !- X,Y,Z Vertex 3 {m}
  0, 3.048, 2.4384;                       !- X,Y,Z Vertex 4 {m}

OS:ThermalZone,
  {8334cb36-0367-4e5c-b5d7-6a0401da9f6d}, !- Handle
  living zone|unit 3,                     !- Name
  ,                                       !- Multiplier
  ,                                       !- Ceiling Height {m}
  ,                                       !- Volume {m3}
  ,                                       !- Floor Area {m2}
  ,                                       !- Zone Inside Convection Algorithm