!- NOTE: Auto-generated from /test/osw_files/MF_8units_1story_UB_3Beds_2Baths_Denver.osw

OS:Version,
  {f0710eed-8c19-4cf3-a01a-3d744d39e72a}, !- Handle
  2.6.2;                                  !- Version Identifier

OS:Building,
  {468ceeae-e2b8-4040-b6e6-5e07cdcad4a9}, !- Handle
  Building 1,                             !- Name
  ,                                       !- Building Sector Type
  0,                                      !- North Axis {deg}
  ,                                       !- Nominal Floor to Floor Height {m}
  ,                                       !- Space Type Name
  ,                                       !- Default Construction Set Name
  ,                                       !- Default Schedule Set Name
  2,                                      !- Standards Number of Stories
  1,                                      !- Standards Number of Above Ground Stories
  multifamily,                            !- Standards Building Type
  8;                                      !- Standards Number of Living Units

OS:Facility,
  {9e11a139-211a-4ad1-92fc-e0cea9d68077}; !- Handle

OS:Site,
  {797569f6-4432-42b5-9bcd-3f1343f317d8}, !- Handle
  Denver Intl Ap_CO_USA,                  !- Name
  39.83,                                  !- Latitude {deg}
  -104.65,                                !- Longitude {deg}
  -7,                                     !- Time Zone {hr}
  1650,                                   !- Elevation {m}
  ;                                       !- Terrain

OS:SimulationControl,
  {d66fa8a4-0cb1-4e08-b043-012b89aaf27d}, !- Handle
  ,                                       !- Do Zone Sizing Calculation
  ,                                       !- Do System Sizing Calculation
  ,                                       !- Do Plant Sizing Calculation
  No;                                     !- Run Simulation for Sizing Periods

OS:Sizing:Parameters,
  {b46496ba-3f9a-4870-b189-c1c33e1f03e8}, !- Handle
  1.25,                                   !- Heating Sizing Factor
  1.15;                                   !- Cooling Sizing Factor

OS:Timestep,
  {8f8e321e-7784-4e3e-9342-61ba98e74545}, !- Handle
  6;                                      !- Number of Timesteps per Hour

OS:ShadowCalculation,
  {97e82410-18ab-4e78-9747-2887da609793}, !- Handle
  20,                                     !- Calculation Frequency
  200;                                    !- Maximum Figures in Shadow Overlap Calculations

OS:HeatBalanceAlgorithm,
  {a2e8b4c3-6e1e-4854-996f-a3f7d6d53996}, !- Handle
  ConductionTransferFunction,             !- Algorithm
  200;                                    !- Surface Temperature Upper Limit {C}

OS:RunPeriod,
  {84b83ff2-7af2-4b72-a7b4-14d8df04e88b}, !- Handle
  Run Period 1,                           !- Name
  1,                                      !- Begin Month
  1,                                      !- Begin Day of Month
  12,                                     !- End Month
  31,                                     !- End Day of Month
  ,                                       !- Use Weather File Holidays and Special Days
  ,                                       !- Use Weather File Daylight Saving Period
  ,                                       !- Apply Weekend Holiday Rule
  ,                                       !- Use Weather File Rain Indicators
  ,                                       !- Use Weather File Snow Indicators
  ;                                       !- Number of Times Runperiod to be Repeated

OS:LifeCycleCost:Parameters,
  {a0fbcf67-82bd-4692-b436-1283765a09df}, !- Handle
  ,                                       !- Analysis Type
  ,                                       !- Discounting Convention
  ,                                       !- Inflation Approach
  ,                                       !- Real Discount Rate
  ,                                       !- Nominal Discount Rate
  ,                                       !- Inflation
  ,                                       !- Base Date Month
  ,                                       !- Base Date Year
  ,                                       !- Service Date Month
  ,                                       !- Service Date Year
  ;                                       !- Length of Study Period in Years

OS:SurfaceConvectionAlgorithm:Outside,
  {54c80a1e-2ebd-4b78-b5e6-bcf1f1cac27c}, !- Handle
  DOE-2;                                  !- Algorithm

OS:SurfaceConvectionAlgorithm:Inside,
  {351c7e69-10f8-45d8-a035-f518ac1dc917}, !- Handle
  TARP;                                   !- Algorithm

OS:ZoneCapacitanceMultiplier:ResearchSpecial,
  {47335345-c1a4-4bc8-be55-81c7c06eeaf6}, !- Handle
  ,                                       !- Temperature Capacity Multiplier
  15,                                     !- Humidity Capacity Multiplier
  ;                                       !- Carbon Dioxide Capacity Multiplier

OS:ThermalZone,
  {ffa1d158-223d-4d01-be59-c2c50abc4849}, !- Handle
  living zone,                            !- Name
  ,                                       !- Multiplier
  ,                                       !- Ceiling Height {m}
  ,                                       !- Volume {m3}
  ,                                       !- Floor Area {m2}
  ,                                       !- Zone Inside Convection Algorithm
  ,                                       !- Zone Outside Convection Algorithm
  ,                                       !- Zone Conditioning Equipment List Name
  {112a0190-2984-442e-842f-49f4c5c2057c}, !- Zone Air Inlet Port List
  {9e25b749-0cff-4426-a029-79cb93aff403}, !- Zone Air Exhaust Port List
  {3bdfc5ba-2fa6-4e90-bd55-5b800b5edcb0}, !- Zone Air Node Name
  {b8af18f3-dcff-4fb9-874b-287cf3240d02}, !- Zone Return Air Port List
  ,                                       !- Primary Daylighting Control Name
  ,                                       !- Fraction of Zone Controlled by Primary Daylighting Control
  ,                                       !- Secondary Daylighting Control Name
  ,                                       !- Fraction of Zone Controlled by Secondary Daylighting Control
  ,                                       !- Illuminance Map Name
  ,                                       !- Group Rendering Name
  ,                                       !- Thermostat Name
  No;                                     !- Use Ideal Air Loads

OS:Node,
  {47c9ea63-7360-4e69-b3c4-0fba8d448d62}, !- Handle
  Node 1,                                 !- Name
  {3bdfc5ba-2fa6-4e90-bd55-5b800b5edcb0}, !- Inlet Port
  ;                                       !- Outlet Port

OS:Connection,
  {3bdfc5ba-2fa6-4e90-bd55-5b800b5edcb0}, !- Handle
  {6ce27ce4-b6b7-43d5-ba19-72792949bd98}, !- Name
  {ffa1d158-223d-4d01-be59-c2c50abc4849}, !- Source Object
  11,                                     !- Outlet Port
  {47c9ea63-7360-4e69-b3c4-0fba8d448d62}, !- Target Object
  2;                                      !- Inlet Port

OS:PortList,
  {112a0190-2984-442e-842f-49f4c5c2057c}, !- Handle
  {6dd773df-bba9-410a-99c0-16bf8e094c9a}, !- Name
  {ffa1d158-223d-4d01-be59-c2c50abc4849}; !- HVAC Component

OS:PortList,
  {9e25b749-0cff-4426-a029-79cb93aff403}, !- Handle
  {98aec594-a199-47f4-a94e-8530344e6e7c}, !- Name
  {ffa1d158-223d-4d01-be59-c2c50abc4849}; !- HVAC Component

OS:PortList,
  {b8af18f3-dcff-4fb9-874b-287cf3240d02}, !- Handle
  {019418b5-7715-4487-b074-aa1783240285}, !- Name
  {ffa1d158-223d-4d01-be59-c2c50abc4849}; !- HVAC Component

OS:Sizing:Zone,
  {a3fbd086-b2ad-4235-b1d7-4e58296f837b}, !- Handle
  {ffa1d158-223d-4d01-be59-c2c50abc4849}, !- Zone or ZoneList Name
  SupplyAirTemperature,                   !- Zone Cooling Design Supply Air Temperature Input Method
  14,                                     !- Zone Cooling Design Supply Air Temperature {C}
  11.11,                                  !- Zone Cooling Design Supply Air Temperature Difference {deltaC}
  SupplyAirTemperature,                   !- Zone Heating Design Supply Air Temperature Input Method
  40,                                     !- Zone Heating Design Supply Air Temperature {C}
  11.11,                                  !- Zone Heating Design Supply Air Temperature Difference {deltaC}
  0.0085,                                 !- Zone Cooling Design Supply Air Humidity Ratio {kg-H2O/kg-air}
  0.008,                                  !- Zone Heating Design Supply Air Humidity Ratio {kg-H2O/kg-air}
  ,                                       !- Zone Heating Sizing Factor
  ,                                       !- Zone Cooling Sizing Factor
  DesignDay,                              !- Cooling Design Air Flow Method
  ,                                       !- Cooling Design Air Flow Rate {m3/s}
  ,                                       !- Cooling Minimum Air Flow per Zone Floor Area {m3/s-m2}
  ,                                       !- Cooling Minimum Air Flow {m3/s}
  ,                                       !- Cooling Minimum Air Flow Fraction
  DesignDay,                              !- Heating Design Air Flow Method
  ,                                       !- Heating Design Air Flow Rate {m3/s}
  ,                                       !- Heating Maximum Air Flow per Zone Floor Area {m3/s-m2}
  ,                                       !- Heating Maximum Air Flow {m3/s}
  ,                                       !- Heating Maximum Air Flow Fraction
  ,                                       !- Design Zone Air Distribution Effectiveness in Cooling Mode
  ,                                       !- Design Zone Air Distribution Effectiveness in Heating Mode
  No,                                     !- Account for Dedicated Outdoor Air System
  NeutralSupplyAir,                       !- Dedicated Outdoor Air System Control Strategy
  autosize,                               !- Dedicated Outdoor Air Low Setpoint Temperature for Design {C}
  autosize;                               !- Dedicated Outdoor Air High Setpoint Temperature for Design {C}

OS:ZoneHVAC:EquipmentList,
  {1ca66864-a311-4f35-b8c4-53dcbd719723}, !- Handle
  Zone HVAC Equipment List 1,             !- Name
  {ffa1d158-223d-4d01-be59-c2c50abc4849}; !- Thermal Zone

OS:Space,
  {2806f175-eb5c-498b-b0cb-f371a38b183a}, !- Handle
  living space,                           !- Name
  {c59f1aac-f253-4bdb-b65b-0b2d5110832f}, !- Space Type Name
  ,                                       !- Default Construction Set Name
  ,                                       !- Default Schedule Set Name
  ,                                       !- Direction of Relative North {deg}
  ,                                       !- X Origin {m}
  ,                                       !- Y Origin {m}
  ,                                       !- Z Origin {m}
  ,                                       !- Building Story Name
  {ffa1d158-223d-4d01-be59-c2c50abc4849}, !- Thermal Zone Name
  ,                                       !- Part of Total Floor Area
  ,                                       !- Design Specification Outdoor Air Object Name
  {887c694a-dda2-4a1e-9368-b6ad487bda4d}; !- Building Unit Name

OS:Surface,
  {492386fb-80f4-420c-a04d-b37510666cd5}, !- Handle
  Surface 1,                              !- Name
  Floor,                                  !- Surface Type
  ,                                       !- Construction Name
  {2806f175-eb5c-498b-b0cb-f371a38b183a}, !- Space Name
  Surface,                                !- Outside Boundary Condition
  {ae4a8d0c-8344-4ec9-ab00-2d695d8d905c}, !- Outside Boundary Condition Object
  NoSun,                                  !- Sun Exposure
  NoWind,                                 !- Wind Exposure
  ,                                       !- View Factor to Ground
  ,                                       !- Number of Vertices
  0, -12.9315688143396, 0,                !- X,Y,Z Vertex 1 {m}
  0, 0, 0,                                !- X,Y,Z Vertex 2 {m}
  6.46578440716979, 0, 0,                 !- X,Y,Z Vertex 3 {m}
  6.46578440716979, -12.9315688143396, 0; !- X,Y,Z Vertex 4 {m}

OS:Surface,
  {d9d5ba72-116c-430d-ba03-f69a8a6c4b72}, !- Handle
  Surface 2,                              !- Name
  Wall,                                   !- Surface Type
  ,                                       !- Construction Name
  {2806f175-eb5c-498b-b0cb-f371a38b183a}, !- Space Name
  Outdoors,                               !- Outside Boundary Condition
  ,                                       !- Outside Boundary Condition Object
  SunExposed,                             !- Sun Exposure
  WindExposed,                            !- Wind Exposure
  ,                                       !- View Factor to Ground
  ,                                       !- Number of Vertices
  0, 0, 2.4384,                           !- X,Y,Z Vertex 1 {m}
  0, 0, 0,                                !- X,Y,Z Vertex 2 {m}
  0, -12.9315688143396, 0,                !- X,Y,Z Vertex 3 {m}
  0, -12.9315688143396, 2.4384;           !- X,Y,Z Vertex 4 {m}

OS:Surface,
  {9f2f4c6b-3703-42d8-b3bb-ac179a302c44}, !- Handle
  Surface 3,                              !- Name
  Wall,                                   !- Surface Type
  ,                                       !- Construction Name
  {2806f175-eb5c-498b-b0cb-f371a38b183a}, !- Space Name
  Adiabatic,                              !- Outside Boundary Condition
  ,                                       !- Outside Boundary Condition Object
  NoSun,                                  !- Sun Exposure
  NoWind,                                 !- Wind Exposure
  ,                                       !- View Factor to Ground
  ,                                       !- Number of Vertices
  6.46578440716979, 0, 2.4384,            !- X,Y,Z Vertex 1 {m}
  6.46578440716979, 0, 0,                 !- X,Y,Z Vertex 2 {m}
  0, 0, 0,                                !- X,Y,Z Vertex 3 {m}
  0, 0, 2.4384;                           !- X,Y,Z Vertex 4 {m}

OS:Surface,
  {d5934783-06ae-4730-961b-53d7831434f8}, !- Handle
  Surface 4,                              !- Name
  Wall,                                   !- Surface Type
  ,                                       !- Construction Name
  {2806f175-eb5c-498b-b0cb-f371a38b183a}, !- Space Name
  Surface,                                !- Outside Boundary Condition
  {47df1d40-a12e-413b-84c7-6088e90b76c4}, !- Outside Boundary Condition Object
  NoSun,                                  !- Sun Exposure
  NoWind,                                 !- Wind Exposure
  ,                                       !- View Factor to Ground
  ,                                       !- Number of Vertices
  6.46578440716979, -12.9315688143396, 2.4384, !- X,Y,Z Vertex 1 {m}
  6.46578440716979, -12.9315688143396, 0, !- X,Y,Z Vertex 2 {m}
  6.46578440716979, 0, 0,                 !- X,Y,Z Vertex 3 {m}
  6.46578440716979, 0, 2.4384;            !- X,Y,Z Vertex 4 {m}

OS:Surface,
  {ab538428-35da-4bec-9706-b792d7fd772e}, !- Handle
  Surface 5,                              !- Name
  Wall,                                   !- Surface Type
  ,                                       !- Construction Name
  {2806f175-eb5c-498b-b0cb-f371a38b183a}, !- Space Name
  Outdoors,                               !- Outside Boundary Condition
  ,                                       !- Outside Boundary Condition Object
  SunExposed,                             !- Sun Exposure
  WindExposed,                            !- Wind Exposure
  ,                                       !- View Factor to Ground
  ,                                       !- Number of Vertices
  0, -12.9315688143396, 2.4384,           !- X,Y,Z Vertex 1 {m}
  0, -12.9315688143396, 0,                !- X,Y,Z Vertex 2 {m}
  6.46578440716979, -12.9315688143396, 0, !- X,Y,Z Vertex 3 {m}
  6.46578440716979, -12.9315688143396, 2.4384; !- X,Y,Z Vertex 4 {m}

OS:Surface,
  {61128312-2d77-48c0-a89f-a7d557104e3f}, !- Handle
  Surface 6,                              !- Name
  RoofCeiling,                            !- Surface Type
  ,                                       !- Construction Name
  {2806f175-eb5c-498b-b0cb-f371a38b183a}, !- Space Name
  Outdoors,                               !- Outside Boundary Condition
  ,                                       !- Outside Boundary Condition Object
  SunExposed,                             !- Sun Exposure
  WindExposed,                            !- Wind Exposure
  ,                                       !- View Factor to Ground
  ,                                       !- Number of Vertices
  6.46578440716979, -12.9315688143396, 2.4384, !- X,Y,Z Vertex 1 {m}
  6.46578440716979, 0, 2.4384,            !- X,Y,Z Vertex 2 {m}
  0, 0, 2.4384,                           !- X,Y,Z Vertex 3 {m}
  0, -12.9315688143396, 2.4384;           !- X,Y,Z Vertex 4 {m}

OS:SpaceType,
  {c59f1aac-f253-4bdb-b65b-0b2d5110832f}, !- Handle
  Space Type 1,                           !- Name
  ,                                       !- Default Construction Set Name
  ,                                       !- Default Schedule Set Name
  ,                                       !- Group Rendering Name
  ,                                       !- Design Specification Outdoor Air Object Name
  ,                                       !- Standards Building Type
  living;                                 !- Standards Space Type

OS:ThermalZone,
  {06cafb6c-71d4-4ac0-a3c4-34930b810867}, !- Handle
  living zone|unit 2,                     !- Name
  ,                                       !- Multiplier
  ,                                       !- Ceiling Height {m}
  ,                                       !- Volume {m3}
  ,                                       !- Floor Area {m2}
  ,                                       !- Zone Inside Convection Algorithm
  ,                                       !- Zone Outside Convection Algorithm
  ,                                       !- Zone Conditioning Equipment List Name
  {a22df379-dcfe-410a-ae0e-98fa22f66dfc}, !- Zone Air Inlet Port List
  {1f24bec8-0fc7-4cde-bb2a-ea48ba718b5e}, !- Zone Air Exhaust Port List
  {e1f7fd40-dbb0-4367-95fc-cf7fe419abb9}, !- Zone Air Node Name
  {7cad6324-8fde-4668-bf26-0c95029e4a17}, !- Zone Return Air Port List
  ,                                       !- Primary Daylighting Control Name
  ,                                       !- Fraction of Zone Controlled by Primary Daylighting Control
  ,                                       !- Secondary Daylighting Control Name
  ,                                       !- Fraction of Zone Controlled by Secondary Daylighting Control
  ,                                       !- Illuminance Map Name
  ,                                       !- Group Rendering Name
  ,                                       !- Thermostat Name
  No;                                     !- Use Ideal Air Loads

OS:Node,
  {bfef8ffc-f226-41b1-927f-a7f101f1375d}, !- Handle
  Node 2,                                 !- Name
  {e1f7fd40-dbb0-4367-95fc-cf7fe419abb9}, !- Inlet Port
  ;                                       !- Outlet Port

OS:Connection,
  {e1f7fd40-dbb0-4367-95fc-cf7fe419abb9}, !- Handle
  {c9b60053-207b-4325-97a1-0c8e975bfbe2}, !- Name
  {06cafb6c-71d4-4ac0-a3c4-34930b810867}, !- Source Object
  11,                                     !- Outlet Port
  {bfef8ffc-f226-41b1-927f-a7f101f1375d}, !- Target Object
  2;                                      !- Inlet Port

OS:PortList,
  {a22df379-dcfe-410a-ae0e-98fa22f66dfc}, !- Handle
  {f7fd2ab4-dd61-4af0-843a-e7c585df0edd}, !- Name
  {06cafb6c-71d4-4ac0-a3c4-34930b810867}; !- HVAC Component

OS:PortList,
  {1f24bec8-0fc7-4cde-bb2a-ea48ba718b5e}, !- Handle
  {50fb5f66-38b3-4556-8745-e4961617da9f}, !- Name
  {06cafb6c-71d4-4ac0-a3c4-34930b810867}; !- HVAC Component

OS:PortList,
  {7cad6324-8fde-4668-bf26-0c95029e4a17}, !- Handle
  {4567ac85-da52-41ad-aa2b-461f4ebb9f5d}, !- Name
  {06cafb6c-71d4-4ac0-a3c4-34930b810867}; !- HVAC Component

OS:Sizing:Zone,
  {f0679de5-1e99-4316-829d-2f670f91e67e}, !- Handle
  {06cafb6c-71d4-4ac0-a3c4-34930b810867}, !- Zone or ZoneList Name
  SupplyAirTemperature,                   !- Zone Cooling Design Supply Air Temperature Input Method
  14,                                     !- Zone Cooling Design Supply Air Temperature {C}
  11.11,                                  !- Zone Cooling Design Supply Air Temperature Difference {deltaC}
  SupplyAirTemperature,                   !- Zone Heating Design Supply Air Temperature Input Method
  40,                                     !- Zone Heating Design Supply Air Temperature {C}
  11.11,                                  !- Zone Heating Design Supply Air Temperature Difference {deltaC}
  0.0085,                                 !- Zone Cooling Design Supply Air Humidity Ratio {kg-H2O/kg-air}
  0.008,                                  !- Zone Heating Design Supply Air Humidity Ratio {kg-H2O/kg-air}
  ,                                       !- Zone Heating Sizing Factor
  ,                                       !- Zone Cooling Sizing Factor
  DesignDay,                              !- Cooling Design Air Flow Method
  ,                                       !- Cooling Design Air Flow Rate {m3/s}
  ,                                       !- Cooling Minimum Air Flow per Zone Floor Area {m3/s-m2}
  ,                                       !- Cooling Minimum Air Flow {m3/s}
  ,                                       !- Cooling Minimum Air Flow Fraction
  DesignDay,                              !- Heating Design Air Flow Method
  ,                                       !- Heating Design Air Flow Rate {m3/s}
  ,                                       !- Heating Maximum Air Flow per Zone Floor Area {m3/s-m2}
  ,                                       !- Heating Maximum Air Flow {m3/s}
  ,                                       !- Heating Maximum Air Flow Fraction
  ,                                       !- Design Zone Air Distribution Effectiveness in Cooling Mode
  ,                                       !- Design Zone Air Distribution Effectiveness in Heating Mode
  No,                                     !- Account for Dedicated Outdoor Air System
  NeutralSupplyAir,                       !- Dedicated Outdoor Air System Control Strategy
  autosize,                               !- Dedicated Outdoor Air Low Setpoint Temperature for Design {C}
  autosize;                               !- Dedicated Outdoor Air High Setpoint Temperature for Design {C}

OS:ZoneHVAC:EquipmentList,
  {993bc554-b84e-474f-9663-951294e2978e}, !- Handle
  Zone HVAC Equipment List 2,             !- Name
  {06cafb6c-71d4-4ac0-a3c4-34930b810867}; !- Thermal Zone

OS:Space,
  {dfbb954f-3533-4fd4-9dd4-f36c330480e7}, !- Handle
  living space|unit 2,                    !- Name
  {c59f1aac-f253-4bdb-b65b-0b2d5110832f}, !- Space Type Name
  ,                                       !- Default Construction Set Name
  ,                                       !- Default Schedule Set Name
  ,                                       !- Direction of Relative North {deg}
  ,                                       !- X Origin {m}
  ,                                       !- Y Origin {m}
  ,                                       !- Z Origin {m}
  ,                                       !- Building Story Name
  {06cafb6c-71d4-4ac0-a3c4-34930b810867}, !- Thermal Zone Name
  ,                                       !- Part of Total Floor Area
  ,                                       !- Design Specification Outdoor Air Object Name
  {e66b13c7-f360-4697-b0b7-cdaed340664a}; !- Building Unit Name

OS:Surface,
  {3c411381-75a9-4ca6-9557-5d64ecfe5887}, !- Handle
  Surface 7,                              !- Name
  Floor,                                  !- Surface Type
  ,                                       !- Construction Name
  {dfbb954f-3533-4fd4-9dd4-f36c330480e7}, !- Space Name
  Surface,                                !- Outside Boundary Condition
  {1b864ba2-a57e-4240-be33-47704116c682}, !- Outside Boundary Condition Object
  NoSun,                                  !- Sun Exposure
  NoWind,                                 !- Wind Exposure
  ,                                       !- View Factor to Ground
  ,                                       !- Number of Vertices
  0, 3.048, 0,                            !- X,Y,Z Vertex 1 {m}
  0, 15.9795688143396, 0,                 !- X,Y,Z Vertex 2 {m}
  6.46578440716979, 15.9795688143396, 0,  !- X,Y,Z Vertex 3 {m}
  6.46578440716979, 3.048, 0;             !- X,Y,Z Vertex 4 {m}

OS:Surface,
  {d087d546-8a4b-48c4-a04d-cc6b2fe0eeea}, !- Handle
  Surface 8,                              !- Name
  Wall,                                   !- Surface Type
  ,                                       !- Construction Name
  {dfbb954f-3533-4fd4-9dd4-f36c330480e7}, !- Space Name
  Outdoors,                               !- Outside Boundary Condition
  ,                                       !- Outside Boundary Condition Object
  SunExposed,                             !- Sun Exposure
  WindExposed,                            !- Wind Exposure
  ,                                       !- View Factor to Ground
  ,                                       !- Number of Vertices
  0, 15.9795688143396, 2.4384,            !- X,Y,Z Vertex 1 {m}
  0, 15.9795688143396, 0,                 !- X,Y,Z Vertex 2 {m}
  0, 3.048, 0,                            !- X,Y,Z Vertex 3 {m}
  0, 3.048, 2.4384;                       !- X,Y,Z Vertex 4 {m}

OS:Surface,
  {3a62d255-4a7c-4da0-975b-7347b267ba82}, !- Handle
  Surface 9,                              !- Name
  Wall,                                   !- Surface Type
  ,                                       !- Construction Name
  {dfbb954f-3533-4fd4-9dd4-f36c330480e7}, !- Space Name
  Outdoors,                               !- Outside Boundary Condition
  ,                                       !- Outside Boundary Condition Object
  SunExposed,                             !- Sun Exposure
  WindExposed,                            !- Wind Exposure
  ,                                       !- View Factor to Ground
  ,                                       !- Number of Vertices
  6.46578440716979, 15.9795688143396, 2.4384, !- X,Y,Z Vertex 1 {m}
  6.46578440716979, 15.9795688143396, 0,  !- X,Y,Z Vertex 2 {m}
  0, 15.9795688143396, 0,                 !- X,Y,Z Vertex 3 {m}
  0, 15.9795688143396, 2.4384;            !- X,Y,Z Vertex 4 {m}

OS:Surface,
  {57c960a4-74c6-4824-b742-64a60ca80fc1}, !- Handle
  Surface 10,                             !- Name
  Wall,                                   !- Surface Type
  ,                                       !- Construction Name
  {dfbb954f-3533-4fd4-9dd4-f36c330480e7}, !- Space Name
  Surface,                                !- Outside Boundary Condition
  {6753588f-a268-48a8-9b7b-4ac764bab7f4}, !- Outside Boundary Condition Object
  NoSun,                                  !- Sun Exposure
  NoWind,                                 !- Wind Exposure
  ,                                       !- View Factor to Ground
  ,                                       !- Number of Vertices
  6.46578440716979, 3.048, 2.4384,        !- X,Y,Z Vertex 1 {m}
  6.46578440716979, 3.048, 0,             !- X,Y,Z Vertex 2 {m}
  6.46578440716979, 15.9795688143396, 0,  !- X,Y,Z Vertex 3 {m}
  6.46578440716979, 15.9795688143396, 2.4384; !- X,Y,Z Vertex 4 {m}

OS:Surface,
  {386283a5-422f-45d5-beae-2861296f2ab3}, !- Handle
  Surface 11,                             !- Name
  Wall,                                   !- Surface Type
  ,                                       !- Construction Name
  {dfbb954f-3533-4fd4-9dd4-f36c330480e7}, !- Space Name
  Adiabatic,                              !- Outside Boundary Condition
  ,                                       !- Outside Boundary Condition Object
  NoSun,                                  !- Sun Exposure
  NoWind,                                 !- Wind Exposure
  ,                                       !- View Factor to Ground
  ,                                       !- Number of Vertices
  0, 3.048, 2.4384,                       !- X,Y,Z Vertex 1 {m}
  0, 3.048, 0,                            !- X,Y,Z Vertex 2 {m}
  6.46578440716979, 3.048, 0,             !- X,Y,Z Vertex 3 {m}
  6.46578440716979, 3.048, 2.4384;        !- X,Y,Z Vertex 4 {m}

OS:Surface,
  {43ca93ad-dcb9-4aac-85da-9504e05b8707}, !- Handle
  Surface 12,                             !- Name
  RoofCeiling,                            !- Surface Type
  ,                                       !- Construction Name
  {dfbb954f-3533-4fd4-9dd4-f36c330480e7}, !- Space Name
  Outdoors,                               !- Outside Boundary Condition
  ,                                       !- Outside Boundary Condition Object
  SunExposed,                             !- Sun Exposure
  WindExposed,                            !- Wind Exposure
  ,                                       !- View Factor to Ground
  ,                                       !- Number of Vertices
  6.46578440716979, 3.048, 2.4384,        !- X,Y,Z Vertex 1 {m}
  6.46578440716979, 15.9795688143396, 2.4384, !- X,Y,Z Vertex 2 {m}
  0, 15.9795688143396, 2.4384,            !- X,Y,Z Vertex 3 {m}
  0, 3.048, 2.4384;                       !- X,Y,Z Vertex 4 {m}

OS:ThermalZone,
  {d27d8301-b1e9-40c0-b769-75744407cc47}, !- Handle
  living zone|unit 3,                     !- Name
  ,                                       !- Multiplier
  ,                                       !- Ceiling Height {m}
  ,                                       !- Volume {m3}
  ,                                       !- Floor Area {m2}
  ,                                       !- Zone Inside Convection Algorithm
  ,                                       !- Zone Outside Convection Algorithm
  ,                                       !- Zone Conditioning Equipment List Name