!- NOTE: Auto-generated from /test/osw_files/SFA_10units_2story_UB_UA_3Beds_2Baths_Denver.osw

OS:Version,
  {23b62625-550c-417f-9416-8effdece0ad2}, !- Handle
  2.5.0;                                  !- Version Identifier

OS:Building,
  {b494fed5-68b2-4217-988e-d18608832d8c}, !- Handle
  Building 1,                             !- Name
  ,                                       !- Building Sector Type
  0,                                      !- North Axis {deg}
  ,                                       !- Nominal Floor to Floor Height {m}
  ,                                       !- Space Type Name
  ,                                       !- Default Construction Set Name
  ,                                       !- Default Schedule Set Name
  3,                                      !- Standards Number of Stories
  2,                                      !- Standards Number of Above Ground Stories
  singlefamilyattached,                   !- Standards Building Type
  10;                                     !- Standards Number of Living Units

OS:Facility,
  {f49e7def-e067-4b2b-99a6-e99a4882de98}; !- Handle

OS:Site,
  {1ccff857-440e-4e5d-a876-a34de36a9f22}, !- Handle
  Denver Intl Ap_CO_USA,                  !- Name
  39.83,                                  !- Latitude {deg}
  -104.65,                                !- Longitude {deg}
  -7,                                     !- Time Zone {hr}
  1650,                                   !- Elevation {m}
  ;                                       !- Terrain

OS:SimulationControl,
  {52263ff3-2003-4852-bdeb-530d5a7f8db5}, !- Handle
  ,                                       !- Do Zone Sizing Calculation
  ,                                       !- Do System Sizing Calculation
  ,                                       !- Do Plant Sizing Calculation
  No;                                     !- Run Simulation for Sizing Periods

OS:Sizing:Parameters,
  {78fc2d4b-3a25-46bf-93fc-2dcd4377232b}, !- Handle
  1.25,                                   !- Heating Sizing Factor
  1.15;                                   !- Cooling Sizing Factor

OS:Timestep,
  {df9f8227-f1d3-4ffb-b891-8796520a1485}, !- Handle
  6;                                      !- Number of Timesteps per Hour

OS:ShadowCalculation,
  {51da6cac-ac5c-4d83-9208-c5a79a4a7a36}, !- Handle
  20,                                     !- Calculation Frequency
  200;                                    !- Maximum Figures in Shadow Overlap Calculations

OS:HeatBalanceAlgorithm,
  {a8c7fede-cf2d-4839-a7f0-60ddc1d7c835}, !- Handle
  ConductionTransferFunction,             !- Algorithm
  200;                                    !- Surface Temperature Upper Limit {C}

OS:RunPeriod,
  {4ea44688-f6dd-481e-a8a0-eefcc714976a}, !- Handle
  Run Period 1,                           !- Name
  1,                                      !- Begin Month
  1,                                      !- Begin Day of Month
  12,                                     !- End Month
  31,                                     !- End Day of Month
  ,                                       !- Use Weather File Holidays and Special Days
  ,                                       !- Use Weather File Daylight Saving Period
  ,                                       !- Apply Weekend Holiday Rule
  ,                                       !- Use Weather File Rain Indicators
  ,                                       !- Use Weather File Snow Indicators
  ;                                       !- Number of Times Runperiod to be Repeated

OS:LifeCycleCost:Parameters,
  {68929c2b-334d-49aa-82d0-2ebef218044e}, !- Handle
  ,                                       !- Analysis Type
  ,                                       !- Discounting Convention
  ,                                       !- Inflation Approach
  ,                                       !- Real Discount Rate
  ,                                       !- Nominal Discount Rate
  ,                                       !- Inflation
  ,                                       !- Base Date Month
  ,                                       !- Base Date Year
  ,                                       !- Service Date Month
  ,                                       !- Service Date Year
  ;                                       !- Length of Study Period in Years

OS:ThermalZone,
  {331d4cfe-4c07-4eff-9c3b-3874d04fb491}, !- Handle
  living zone,                            !- Name
  ,                                       !- Multiplier
  ,                                       !- Ceiling Height {m}
  ,                                       !- Volume {m3}
  ,                                       !- Floor Area {m2}
  ,                                       !- Zone Inside Convection Algorithm
  ,                                       !- Zone Outside Convection Algorithm
  ,                                       !- Zone Conditioning Equipment List Name
  {33e13375-63f0-4a69-9a25-3d541374d3bb}, !- Zone Air Inlet Port List
  {e7ffcb3a-3f2d-4ea0-82f7-b2111a558f3d}, !- Zone Air Exhaust Port List
  {07a4b37d-d184-46e2-876d-f406ca2ac36a}, !- Zone Air Node Name
  ,                                       !- Zone Return Air Node Name
  ,                                       !- Primary Daylighting Control Name
  ,                                       !- Fraction of Zone Controlled by Primary Daylighting Control
  ,                                       !- Secondary Daylighting Control Name
  ,                                       !- Fraction of Zone Controlled by Secondary Daylighting Control
  ,                                       !- Illuminance Map Name
  ,                                       !- Group Rendering Name
  ,                                       !- Thermostat Name
  No;                                     !- Use Ideal Air Loads

OS:Node,
  {98375479-36fd-40a1-9ec2-8c0bc03a6049}, !- Handle
  Node 1,                                 !- Name
  {07a4b37d-d184-46e2-876d-f406ca2ac36a}, !- Inlet Port
  ;                                       !- Outlet Port

OS:Connection,
  {07a4b37d-d184-46e2-876d-f406ca2ac36a}, !- Handle
  {a3f6cd13-e921-4670-a86b-ae510716bb32}, !- Name
  {331d4cfe-4c07-4eff-9c3b-3874d04fb491}, !- Source Object
  11,                                     !- Outlet Port
  {98375479-36fd-40a1-9ec2-8c0bc03a6049}, !- Target Object
  2;                                      !- Inlet Port

OS:PortList,
  {33e13375-63f0-4a69-9a25-3d541374d3bb}, !- Handle
  {0fdaa918-ce68-4d4b-8dba-a22187512da2}, !- Name
  {331d4cfe-4c07-4eff-9c3b-3874d04fb491}; !- HVAC Component

OS:PortList,
  {e7ffcb3a-3f2d-4ea0-82f7-b2111a558f3d}, !- Handle
  {39cfb52b-ca6b-4640-ac96-590663d65118}, !- Name
  {331d4cfe-4c07-4eff-9c3b-3874d04fb491}; !- HVAC Component

OS:Sizing:Zone,
  {b9de3e12-1f08-47aa-b07c-d6edd622b63f}, !- Handle
  {331d4cfe-4c07-4eff-9c3b-3874d04fb491}, !- Zone or ZoneList Name
  SupplyAirTemperature,                   !- Zone Cooling Design Supply Air Temperature Input Method
  14,                                     !- Zone Cooling Design Supply Air Temperature {C}
  11.11,                                  !- Zone Cooling Design Supply Air Temperature Difference {deltaC}
  SupplyAirTemperature,                   !- Zone Heating Design Supply Air Temperature Input Method
  40,                                     !- Zone Heating Design Supply Air Temperature {C}
  11.11,                                  !- Zone Heating Design Supply Air Temperature Difference {deltaC}
  0.0085,                                 !- Zone Cooling Design Supply Air Humidity Ratio {kg-H2O/kg-air}
  0.008,                                  !- Zone Heating Design Supply Air Humidity Ratio {kg-H2O/kg-air}
  ,                                       !- Zone Heating Sizing Factor
  ,                                       !- Zone Cooling Sizing Factor
  DesignDay,                              !- Cooling Design Air Flow Method
  ,                                       !- Cooling Design Air Flow Rate {m3/s}
  ,                                       !- Cooling Minimum Air Flow per Zone Floor Area {m3/s-m2}
  ,                                       !- Cooling Minimum Air Flow {m3/s}
  ,                                       !- Cooling Minimum Air Flow Fraction
  DesignDay,                              !- Heating Design Air Flow Method
  ,                                       !- Heating Design Air Flow Rate {m3/s}
  ,                                       !- Heating Maximum Air Flow per Zone Floor Area {m3/s-m2}
  ,                                       !- Heating Maximum Air Flow {m3/s}
  ,                                       !- Heating Maximum Air Flow Fraction
  ,                                       !- Design Zone Air Distribution Effectiveness in Cooling Mode
  ,                                       !- Design Zone Air Distribution Effectiveness in Heating Mode
  No,                                     !- Account for Dedicated Outdoor Air System
  NeutralSupplyAir,                       !- Dedicated Outdoor Air System Control Strategy
  autosize,                               !- Dedicated Outdoor Air Low Setpoint Temperature for Design {C}
  autosize;                               !- Dedicated Outdoor Air High Setpoint Temperature for Design {C}

OS:ZoneHVAC:EquipmentList,
  {07122fb8-1a51-4313-9dfe-ef3268ac7b66}, !- Handle
  Zone HVAC Equipment List 1,             !- Name
  {331d4cfe-4c07-4eff-9c3b-3874d04fb491}; !- Thermal Zone

OS:Space,
  {e7a5aa32-c140-45fc-98b9-6da7fd6952b2}, !- Handle
  living space,                           !- Name
  {cd18d95b-5cd6-4dda-ae12-fd586a11cfe3}, !- Space Type Name
  ,                                       !- Default Construction Set Name
  ,                                       !- Default Schedule Set Name
  ,                                       !- Direction of Relative North {deg}
  ,                                       !- X Origin {m}
  ,                                       !- Y Origin {m}
  ,                                       !- Z Origin {m}
  ,                                       !- Building Story Name
  {331d4cfe-4c07-4eff-9c3b-3874d04fb491}, !- Thermal Zone Name
  ,                                       !- Part of Total Floor Area
  ,                                       !- Design Specification Outdoor Air Object Name
  {f631c5c7-6006-4883-9814-faef6c9b3274}; !- Building Unit Name

OS:Surface,
  {1fa722b4-ea0b-4756-b240-8c82fd5a3311}, !- Handle
  Surface 1,                              !- Name
  Floor,                                  !- Surface Type
  ,                                       !- Construction Name
  {e7a5aa32-c140-45fc-98b9-6da7fd6952b2}, !- Space Name
  Surface,                                !- Outside Boundary Condition
  {65a175ff-12d1-43db-a0d0-1016e4601083}, !- Outside Boundary Condition Object
  NoSun,                                  !- Sun Exposure
  NoWind,                                 !- Wind Exposure
  ,                                       !- View Factor to Ground
  ,                                       !- Number of Vertices
  0, -9.144, 0,                           !- X,Y,Z Vertex 1 {m}
  0, 0, 0,                                !- X,Y,Z Vertex 2 {m}
  4.572, 0, 0,                            !- X,Y,Z Vertex 3 {m}
  4.572, -9.144, 0;                       !- X,Y,Z Vertex 4 {m}

OS:Surface,
  {f0342732-6143-4d12-a12d-b8c55bffd0ef}, !- Handle
  Surface 2,                              !- Name
  Wall,                                   !- Surface Type
  ,                                       !- Construction Name
  {e7a5aa32-c140-45fc-98b9-6da7fd6952b2}, !- Space Name
  Outdoors,                               !- Outside Boundary Condition
  ,                                       !- Outside Boundary Condition Object
  SunExposed,                             !- Sun Exposure
  WindExposed,                            !- Wind Exposure
  ,                                       !- View Factor to Ground
  ,                                       !- Number of Vertices
  0, 0, 2.4384,                           !- X,Y,Z Vertex 1 {m}
  0, 0, 0,                                !- X,Y,Z Vertex 2 {m}
  0, -9.144, 0,                           !- X,Y,Z Vertex 3 {m}
  0, -9.144, 2.4384;                      !- X,Y,Z Vertex 4 {m}

OS:Surface,
  {6bb846c0-0858-4a3d-9384-0c44a2420c09}, !- Handle
  Surface 3,                              !- Name
  Wall,                                   !- Surface Type
  ,                                       !- Construction Name
  {e7a5aa32-c140-45fc-98b9-6da7fd6952b2}, !- Space Name
  Outdoors,                               !- Outside Boundary Condition
  ,                                       !- Outside Boundary Condition Object
  SunExposed,                             !- Sun Exposure
  WindExposed,                            !- Wind Exposure
  ,                                       !- View Factor to Ground
  ,                                       !- Number of Vertices
  4.572, 0, 2.4384,                       !- X,Y,Z Vertex 1 {m}
  4.572, 0, 0,                            !- X,Y,Z Vertex 2 {m}
  0, 0, 0,                                !- X,Y,Z Vertex 3 {m}
  0, 0, 2.4384;                           !- X,Y,Z Vertex 4 {m}

OS:Surface,
  {78adec32-693e-4067-9245-71983168aa36}, !- Handle
  Surface 4,                              !- Name
  Wall,                                   !- Surface Type
  ,                                       !- Construction Name
  {e7a5aa32-c140-45fc-98b9-6da7fd6952b2}, !- Space Name
  Surface,                                !- Outside Boundary Condition
  {657dac69-f373-4929-a9bb-c18592644ac9}, !- Outside Boundary Condition Object
  NoSun,                                  !- Sun Exposure
  NoWind,                                 !- Wind Exposure
  ,                                       !- View Factor to Ground
  ,                                       !- Number of Vertices
  4.572, -9.144, 2.4384,                  !- X,Y,Z Vertex 1 {m}
  4.572, -9.144, 0,                       !- X,Y,Z Vertex 2 {m}
  4.572, 0, 0,                            !- X,Y,Z Vertex 3 {m}
  4.572, 0, 2.4384;                       !- X,Y,Z Vertex 4 {m}

OS:Surface,
  {26853a15-36c2-4284-b13c-7eb2e193329b}, !- Handle
  Surface 5,                              !- Name
  Wall,                                   !- Surface Type
  ,                                       !- Construction Name
  {e7a5aa32-c140-45fc-98b9-6da7fd6952b2}, !- Space Name
  Outdoors,                               !- Outside Boundary Condition
  ,                                       !- Outside Boundary Condition Object
  SunExposed,                             !- Sun Exposure
  WindExposed,                            !- Wind Exposure
  ,                                       !- View Factor to Ground
  ,                                       !- Number of Vertices
  0, -9.144, 2.4384,                      !- X,Y,Z Vertex 1 {m}
  0, -9.144, 0,                           !- X,Y,Z Vertex 2 {m}
  4.572, -9.144, 0,                       !- X,Y,Z Vertex 3 {m}
  4.572, -9.144, 2.4384;                  !- X,Y,Z Vertex 4 {m}

OS:Surface,
  {c905543a-a4e8-4c6a-8c54-ed30bdff2e5b}, !- Handle
  Surface 6,                              !- Name
  RoofCeiling,                            !- Surface Type
  ,                                       !- Construction Name
  {e7a5aa32-c140-45fc-98b9-6da7fd6952b2}, !- Space Name
  Surface,                                !- Outside Boundary Condition
  {78ce14f3-fb60-424e-b102-9818e6b47def}, !- Outside Boundary Condition Object
  NoSun,                                  !- Sun Exposure
  NoWind,                                 !- Wind Exposure
  ,                                       !- View Factor to Ground
  ,                                       !- Number of Vertices
  4.572, -9.144, 2.4384,                  !- X,Y,Z Vertex 1 {m}
  4.572, 0, 2.4384,                       !- X,Y,Z Vertex 2 {m}
  0, 0, 2.4384,                           !- X,Y,Z Vertex 3 {m}
  0, -9.144, 2.4384;                      !- X,Y,Z Vertex 4 {m}

OS:SpaceType,
  {cd18d95b-5cd6-4dda-ae12-fd586a11cfe3}, !- Handle
  Space Type 1,                           !- Name
  ,                                       !- Default Construction Set Name
  ,                                       !- Default Schedule Set Name
  ,                                       !- Group Rendering Name
  ,                                       !- Design Specification Outdoor Air Object Name
  ,                                       !- Standards Building Type
  living;                                 !- Standards Space Type

OS:Space,
  {79531d93-f27b-4e92-b642-bb98c9c20f85}, !- Handle
  living space|story 2,                   !- Name
  {cd18d95b-5cd6-4dda-ae12-fd586a11cfe3}, !- Space Type Name
  ,                                       !- Default Construction Set Name
  ,                                       !- Default Schedule Set Name
  -0,                                     !- Direction of Relative North {deg}
  0,                                      !- X Origin {m}
  0,                                      !- Y Origin {m}
  2.4384,                                 !- Z Origin {m}
  ,                                       !- Building Story Name
  {331d4cfe-4c07-4eff-9c3b-3874d04fb491}, !- Thermal Zone Name
  ,                                       !- Part of Total Floor Area
  ,                                       !- Design Specification Outdoor Air Object Name
  {f631c5c7-6006-4883-9814-faef6c9b3274}; !- Building Unit Name

OS:Surface,
  {8e21044a-56cd-4f00-805d-28c14bfd6912}, !- Handle
  Surface 7,                              !- Name
  Wall,                                   !- Surface Type
  ,                                       !- Construction Name
  {79531d93-f27b-4e92-b642-bb98c9c20f85}, !- Space Name
  Surface,                                !- Outside Boundary Condition
  {4469fb37-f001-480e-ad9f-ce69fb93955b}, !- Outside Boundary Condition Object
  NoSun,                                  !- Sun Exposure
  NoWind,                                 !- Wind Exposure
  ,                                       !- View Factor to Ground
  ,                                       !- Number of Vertices
  4.572, -9.144, 2.4384,                  !- X,Y,Z Vertex 1 {m}
  4.572, -9.144, 0,                       !- X,Y,Z Vertex 2 {m}
  4.572, 0, 0,                            !- X,Y,Z Vertex 3 {m}
  4.572, 0, 2.4384;                       !- X,Y,Z Vertex 4 {m}

OS:Surface,
  {d34d6de8-5bb3-47aa-8996-313c1272146d}, !- Handle
  Surface 8,                              !- Name
  RoofCeiling,                            !- Surface Type
  ,                                       !- Construction Name
  {79531d93-f27b-4e92-b642-bb98c9c20f85}, !- Space Name
  Surface,                                !- Outside Boundary Condition
  {c646d324-99cb-4476-a417-11c388bb332e}, !- Outside Boundary Condition Object
  NoSun,                                  !- Sun Exposure
  NoWind,                                 !- Wind Exposure
  ,                                       !- View Factor to Ground
  ,                                       !- Number of Vertices
  4.572, -9.144, 2.4384,                  !- X,Y,Z Vertex 1 {m}
  4.572, 0, 2.4384,                       !- X,Y,Z Vertex 2 {m}
  0, 0, 2.4384,                           !- X,Y,Z Vertex 3 {m}
  0, -9.144, 2.4384;                      !- X,Y,Z Vertex 4 {m}

OS:Surface,
  {78ce14f3-fb60-424e-b102-9818e6b47def}, !- Handle
  Surface 9,                              !- Name
  Floor,                                  !- Surface Type
  ,                                       !- Construction Name
  {79531d93-f27b-4e92-b642-bb98c9c20f85}, !- Space Name
  Surface,                                !- Outside Boundary Condition
  {c905543a-a4e8-4c6a-8c54-ed30bdff2e5b}, !- Outside Boundary Condition Object
  NoSun,                                  !- Sun Exposure
  NoWind,                                 !- Wind Exposure
  ,                                       !- View Factor to Ground
  ,                                       !- Number of Vertices
  0, -9.144, 0,                           !- X,Y,Z Vertex 1 {m}
  0, 0, 0,                                !- X,Y,Z Vertex 2 {m}
  4.572, 0, 0,                            !- X,Y,Z Vertex 3 {m}
  4.572, -9.144, 0;                       !- X,Y,Z Vertex 4 {m}

OS:Surface,
  {12de5e72-8eb4-4e0f-aea5-ecde15de8938}, !- Handle
  Surface 10,                             !- Name
  Wall,                                   !- Surface Type
  ,                                       !- Construction Name
  {79531d93-f27b-4e92-b642-bb98c9c20f85}, !- Space Name
  Outdoors,                               !- Outside Boundary Condition
  ,                                       !- Outside Boundary Condition Object
  SunExposed,                             !- Sun Exposure
  WindExposed,                            !- Wind Exposure
  ,                                       !- View Factor to Ground
  ,                                       !- Number of Vertices
  0, 0, 2.4384,                           !- X,Y,Z Vertex 1 {m}
  0, 0, 0,                                !- X,Y,Z Vertex 2 {m}
  0, -9.144, 0,                           !- X,Y,Z Vertex 3 {m}
  0, -9.144, 2.4384;                      !- X,Y,Z Vertex 4 {m}

OS:Surface,
  {fe3c03cb-ec75-49f1-a98f-0568be6e6cde}, !- Handle
  Surface 11,                             !- Name
  Wall,                                   !- Surface Type
  ,                                       !- Construction Name
  {79531d93-f27b-4e92-b642-bb98c9c20f85}, !- Space Name
  Outdoors,                               !- Outside Boundary Condition
  ,                                       !- Outside Boundary Condition Object
  SunExposed,                             !- Sun Exposure
  WindExposed,                            !- Wind Exposure
  ,                                       !- View Factor to Ground
  ,                                       !- Number of Vertices
  4.572, 0, 2.4384,                       !- X,Y,Z Vertex 1 {m}
  4.572, 0, 0,                            !- X,Y,Z Vertex 2 {m}
  0, 0, 0,                                !- X,Y,Z Vertex 3 {m}
  0, 0, 2.4384;                           !- X,Y,Z Vertex 4 {m}

OS:Surface,
  {264d596a-ef67-478f-9f9e-c7c3bfe247de}, !- Handle
  Surface 12,                             !- Name
  Wall,                                   !- Surface Type
  ,                                       !- Construction Name
  {79531d93-f27b-4e92-b642-bb98c9c20f85}, !- Space Name
  Outdoors,                               !- Outside Boundary Condition
  ,                                       !- Outside Boundary Condition Object
  SunExposed,                             !- Sun Exposure
  WindExposed,                            !- Wind Exposure
  ,                                       !- View Factor to Ground
  ,                                       !- Number of Vertices
  0, -9.144, 2.4384,                      !- X,Y,Z Vertex 1 {m}
  0, -9.144, 0,                           !- X,Y,Z Vertex 2 {m}
  4.572, -9.144, 0,                       !- X,Y,Z Vertex 3 {m}
  4.572, -9.144, 2.4384;                  !- X,Y,Z Vertex 4 {m}

OS:ThermalZone,
  {ecd667be-5bfb-4015-9fa6-3f6dbdd04286}, !- Handle
  living zone|unit 2,                     !- Name
  ,                                       !- Multiplier
  ,                                       !- Ceiling Height {m}
  ,                                       !- Volume {m3}
  ,                                       !- Floor Area {m2}
  ,                                       !- Zone Inside Convection Algorithm
  ,                                       !- Zone Outside Convection Algorithm
  ,                                       !- Zone Conditioning Equipment List Name
  {dde40109-2bd2-4425-8c3f-bd84bc55eed0}, !- Zone Air Inlet Port List
  {ea6e2a67-7255-4682-8a37-c641bef89716}, !- Zone Air Exhaust Port List
  {720c8434-3f50-4fb7-845b-07a85752d4a8}, !- Zone Air Node Name
  ,                                       !- Zone Return Air Node Name
  ,                                       !- Primary Daylighting Control Name
  ,                                       !- Fraction of Zone Controlled by Primary Daylighting Control
  ,                                       !- Secondary Daylighting Control Name
  ,                                       !- Fraction of Zone Controlled by Secondary Daylighting Control
  ,                                       !- Illuminance Map Name
  ,                                       !- Group Rendering Name
  ,                                       !- Thermostat Name
  No;                                     !- Use Ideal Air Loads

OS:Node,
  {2fe5a836-e250-4ce6-a246-2cc4e1f3abdd}, !- Handle
  Node 2,                                 !- Name
  {720c8434-3f50-4fb7-845b-07a85752d4a8}, !- Inlet Port
  ;                                       !- Outlet Port

OS:Connection,
  {720c8434-3f50-4fb7-845b-07a85752d4a8}, !- Handle
  {7dab5e2a-38c0-40a6-a3cb-989556fe9ff3}, !- Name
  {ecd667be-5bfb-4015-9fa6-3f6dbdd04286}, !- Source Object
  11,                                     !- Outlet Port
  {2fe5a836-e250-4ce6-a246-2cc4e1f3abdd}, !- Target Object
  2;                                      !- Inlet Port

OS:PortList,
  {dde40109-2bd2-4425-8c3f-bd84bc55eed0}, !- Handle
  {e486094a-50d0-4e56-860f-7804c908c13e}, !- Name
  {ecd667be-5bfb-4015-9fa6-3f6dbdd04286}; !- HVAC Component

OS:PortList,
  {ea6e2a67-7255-4682-8a37-c641bef89716}, !- Handle
  {14342266-2204-4fd6-ba4c-f65171f78a5a}, !- Name
  {ecd667be-5bfb-4015-9fa6-3f6dbdd04286}; !- HVAC Component

OS:Sizing:Zone,
  {72d88cf2-ce57-40d3-8221-35e8db0d706d}, !- Handle
  {ecd667be-5bfb-4015-9fa6-3f6dbdd04286}, !- Zone or ZoneList Name
  SupplyAirTemperature,                   !- Zone Cooling Design Supply Air Temperature Input Method
  14,                                     !- Zone Cooling Design Supply Air Temperature {C}
  11.11,                                  !- Zone Cooling Design Supply Air Temperature Difference {deltaC}
  SupplyAirTemperature,                   !- Zone Heating Design Supply Air Temperature Input Method
  40,                                     !- Zone Heating Design Supply Air Temperature {C}
  11.11,                                  !- Zone Heating Design Supply Air Temperature Difference {deltaC}
  0.0085,                                 !- Zone Cooling Design Supply Air Humidity Ratio {kg-H2O/kg-air}
  0.008,                                  !- Zone Heating Design Supply Air Humidity Ratio {kg-H2O/kg-air}
  ,                                       !- Zone Heating Sizing Factor
  ,                                       !- Zone Cooling Sizing Factor
  DesignDay,                              !- Cooling Design Air Flow Method
  ,                                       !- Cooling Design Air Flow Rate {m3/s}
  ,                                       !- Cooling Minimum Air Flow per Zone Floor Area {m3/s-m2}
  ,                                       !- Cooling Minimum Air Flow {m3/s}
  ,                                       !- Cooling Minimum Air Flow Fraction
  DesignDay,                              !- Heating Design Air Flow Method
  ,                                       !- Heating Design Air Flow Rate {m3/s}
  ,                                       !- Heating Maximum Air Flow per Zone Floor Area {m3/s-m2}
  ,                                       !- Heating Maximum Air Flow {m3/s}
  ,                                       !- Heating Maximum Air Flow Fraction
  ,                                       !- Design Zone Air Distribution Effectiveness in Cooling Mode
  ,                                       !- Design Zone Air Distribution Effectiveness in Heating Mode
  No,                                     !- Account for Dedicated Outdoor Air System
  NeutralSupplyAir,                       !- Dedicated Outdoor Air System Control Strategy
  autosize,                               !- Dedicated Outdoor Air Low Setpoint Temperature for Design {C}
  autosize;                               !- Dedicated Outdoor Air High Setpoint Temperature for Design {C}

OS:ZoneHVAC:EquipmentList,
  {91817f6e-43e2-4548-9166-315d5ecb74e0}, !- Handle
  Zone HVAC Equipment List 2,             !- Name
  {ecd667be-5bfb-4015-9fa6-3f6dbdd04286}; !- Thermal Zone

OS:Space,
  {ef41ca6c-ede2-4d9b-b9c2-ee49bea9a696}, !- Handle
  living space|unit 2|story 1,            !- Name
  {cd18d95b-5cd6-4dda-ae12-fd586a11cfe3}, !- Space Type Name
  ,                                       !- Default Construction Set Name
  ,                                       !- Default Schedule Set Name
  -0,                                     !- Direction of Relative North {deg}
  0,                                      !- X Origin {m}
  0,                                      !- Y Origin {m}
  0,                                      !- Z Origin {m}
  ,                                       !- Building Story Name
  {ecd667be-5bfb-4015-9fa6-3f6dbdd04286}, !- Thermal Zone Name
  ,                                       !- Part of Total Floor Area
  ,                                       !- Design Specification Outdoor Air Object Name
  {7e4bb013-f45b-4e16-a0bd-8c5ad99e6696}; !- Building Unit Name

OS:Surface,
  {da78e46f-d20e-4585-bee8-91aff856f863}, !- Handle
  Surface 18,                             !- Name
  Wall,                                   !- Surface Type
  ,                                       !- Construction Name
  {ef41ca6c-ede2-4d9b-b9c2-ee49bea9a696}, !- Space Name
  Surface,                                !- Outside Boundary Condition
  {a5f62385-590a-46dd-b3ef-791d5adf7e6b}, !- Outside Boundary Condition Object
  NoSun,                                  !- Sun Exposure
  NoWind,                                 !- Wind Exposure
  ,                                       !- View Factor to Ground
  ,                                       !- Number of Vertices