!- NOTE: Auto-generated from /test/osw_files/SFA_10units_2story_UB_UA_3Beds_2Baths_Denver.osw

OS:Version,
  {9c029d72-422b-44d4-80e7-9a5dbc4f595e}, !- Handle
  2.6.0;                                  !- Version Identifier

OS:Building,
  {48cf01b0-2210-492b-9510-87b1caa3a897}, !- Handle
  Building 1,                             !- Name
  ,                                       !- Building Sector Type
  0,                                      !- North Axis {deg}
  ,                                       !- Nominal Floor to Floor Height {m}
  ,                                       !- Space Type Name
  ,                                       !- Default Construction Set Name
  ,                                       !- Default Schedule Set Name
  3,                                      !- Standards Number of Stories
  2,                                      !- Standards Number of Above Ground Stories
  singlefamilyattached,                   !- Standards Building Type
  10;                                     !- Standards Number of Living Units

OS:Facility,
  {e82371e2-fdb2-4c2c-bfc5-41492c884417}; !- Handle

OS:Site,
  {a7b0bb66-8ca5-46e5-8590-1d7571042081}, !- Handle
  Denver Intl Ap_CO_USA,                  !- Name
  39.83,                                  !- Latitude {deg}
  -104.65,                                !- Longitude {deg}
  -7,                                     !- Time Zone {hr}
  1650,                                   !- Elevation {m}
  ;                                       !- Terrain

OS:SimulationControl,
  {dfbf74fa-3239-4310-94eb-ea5ce1f95dec}, !- Handle
  ,                                       !- Do Zone Sizing Calculation
  ,                                       !- Do System Sizing Calculation
  ,                                       !- Do Plant Sizing Calculation
  No;                                     !- Run Simulation for Sizing Periods

OS:Sizing:Parameters,
  {e8a89e71-09a0-471e-ac4d-f28dac0bfeaa}, !- Handle
  1.25,                                   !- Heating Sizing Factor
  1.15;                                   !- Cooling Sizing Factor

OS:Timestep,
  {5f7ee1d8-1979-44de-baf4-1d0c77fb6b96}, !- Handle
  6;                                      !- Number of Timesteps per Hour

OS:ShadowCalculation,
  {18f530a4-3876-4cd6-ba3e-adebc8323d6e}, !- Handle
  20,                                     !- Calculation Frequency
  200;                                    !- Maximum Figures in Shadow Overlap Calculations

OS:HeatBalanceAlgorithm,
  {305e3b5d-73fd-48c9-897f-d29add89a647}, !- Handle
  ConductionTransferFunction,             !- Algorithm
  200;                                    !- Surface Temperature Upper Limit {C}

OS:RunPeriod,
  {2611b45d-f8d8-4ed6-a377-fd56c567cdcc}, !- Handle
  Run Period 1,                           !- Name
  1,                                      !- Begin Month
  1,                                      !- Begin Day of Month
  12,                                     !- End Month
  31,                                     !- End Day of Month
  ,                                       !- Use Weather File Holidays and Special Days
  ,                                       !- Use Weather File Daylight Saving Period
  ,                                       !- Apply Weekend Holiday Rule
  ,                                       !- Use Weather File Rain Indicators
  ,                                       !- Use Weather File Snow Indicators
  ;                                       !- Number of Times Runperiod to be Repeated

OS:LifeCycleCost:Parameters,
  {92ac1886-9034-45b7-96a1-69f19fc8815b}, !- Handle
  ,                                       !- Analysis Type
  ,                                       !- Discounting Convention
  ,                                       !- Inflation Approach
  ,                                       !- Real Discount Rate
  ,                                       !- Nominal Discount Rate
  ,                                       !- Inflation
  ,                                       !- Base Date Month
  ,                                       !- Base Date Year
  ,                                       !- Service Date Month
  ,                                       !- Service Date Year
  ;                                       !- Length of Study Period in Years

OS:SurfaceConvectionAlgorithm:Outside,
  {2eda9c68-f813-4036-a742-9713d4eb2458}, !- Handle
  DOE-2;                                  !- Algorithm

OS:SurfaceConvectionAlgorithm:Inside,
  {a27c8913-bbfe-4e29-a1fe-59f9e7e27f6b}, !- Handle
  TARP;                                   !- Algorithm

OS:ZoneCapacitanceMultiplier:ResearchSpecial,
  {0cc778b0-26e5-459a-bf0d-d34647af0e21}, !- Handle
  ,                                       !- Temperature Capacity Multiplier
  15,                                     !- Humidity Capacity Multiplier
  ;                                       !- Carbon Dioxide Capacity Multiplier

OS:ThermalZone,
  {c2df409a-b3bd-4f9d-bb84-0e2a2e524628}, !- Handle
  living zone,                            !- Name
  ,                                       !- Multiplier
  ,                                       !- Ceiling Height {m}
  ,                                       !- Volume {m3}
  ,                                       !- Floor Area {m2}
  ,                                       !- Zone Inside Convection Algorithm
  ,                                       !- Zone Outside Convection Algorithm
  ,                                       !- Zone Conditioning Equipment List Name
  {05d1df14-16f9-4e2b-bfe6-df180a4edbba}, !- Zone Air Inlet Port List
  {b961b858-5f67-4093-8db3-0f8eec7293ee}, !- Zone Air Exhaust Port List
  {0e1ddd63-8787-4b0f-bacb-508fe59b93cd}, !- Zone Air Node Name
  ,                                       !- Zone Return Air Node Name
  ,                                       !- Primary Daylighting Control Name
  ,                                       !- Fraction of Zone Controlled by Primary Daylighting Control
  ,                                       !- Secondary Daylighting Control Name
  ,                                       !- Fraction of Zone Controlled by Secondary Daylighting Control
  ,                                       !- Illuminance Map Name
  ,                                       !- Group Rendering Name
  ,                                       !- Thermostat Name
  No;                                     !- Use Ideal Air Loads

OS:Node,
  {db0cc082-3516-4352-a5e9-36c27f074b07}, !- Handle
  Node 1,                                 !- Name
  {0e1ddd63-8787-4b0f-bacb-508fe59b93cd}, !- Inlet Port
  ;                                       !- Outlet Port

OS:Connection,
  {0e1ddd63-8787-4b0f-bacb-508fe59b93cd}, !- Handle
  {ba92c6c1-2b02-4e20-8713-6434e8988555}, !- Name
  {c2df409a-b3bd-4f9d-bb84-0e2a2e524628}, !- Source Object
  11,                                     !- Outlet Port
  {db0cc082-3516-4352-a5e9-36c27f074b07}, !- Target Object
  2;                                      !- Inlet Port

OS:PortList,
  {05d1df14-16f9-4e2b-bfe6-df180a4edbba}, !- Handle
  {dae124a4-df8e-411b-b56c-bec15b3dc240}, !- Name
  {c2df409a-b3bd-4f9d-bb84-0e2a2e524628}; !- HVAC Component

OS:PortList,
  {b961b858-5f67-4093-8db3-0f8eec7293ee}, !- Handle
  {73e7fff7-69b9-49d8-a764-cd79dad42b4d}, !- Name
  {c2df409a-b3bd-4f9d-bb84-0e2a2e524628}; !- HVAC Component

OS:Sizing:Zone,
  {968e1111-7757-4959-96a5-ad7644f5e162}, !- Handle
  {c2df409a-b3bd-4f9d-bb84-0e2a2e524628}, !- Zone or ZoneList Name
  SupplyAirTemperature,                   !- Zone Cooling Design Supply Air Temperature Input Method
  14,                                     !- Zone Cooling Design Supply Air Temperature {C}
  11.11,                                  !- Zone Cooling Design Supply Air Temperature Difference {deltaC}
  SupplyAirTemperature,                   !- Zone Heating Design Supply Air Temperature Input Method
  40,                                     !- Zone Heating Design Supply Air Temperature {C}
  11.11,                                  !- Zone Heating Design Supply Air Temperature Difference {deltaC}
  0.0085,                                 !- Zone Cooling Design Supply Air Humidity Ratio {kg-H2O/kg-air}
  0.008,                                  !- Zone Heating Design Supply Air Humidity Ratio {kg-H2O/kg-air}
  ,                                       !- Zone Heating Sizing Factor
  ,                                       !- Zone Cooling Sizing Factor
  DesignDay,                              !- Cooling Design Air Flow Method
  ,                                       !- Cooling Design Air Flow Rate {m3/s}
  ,                                       !- Cooling Minimum Air Flow per Zone Floor Area {m3/s-m2}
  ,                                       !- Cooling Minimum Air Flow {m3/s}
  ,                                       !- Cooling Minimum Air Flow Fraction
  DesignDay,                              !- Heating Design Air Flow Method
  ,                                       !- Heating Design Air Flow Rate {m3/s}
  ,                                       !- Heating Maximum Air Flow per Zone Floor Area {m3/s-m2}
  ,                                       !- Heating Maximum Air Flow {m3/s}
  ,                                       !- Heating Maximum Air Flow Fraction
  ,                                       !- Design Zone Air Distribution Effectiveness in Cooling Mode
  ,                                       !- Design Zone Air Distribution Effectiveness in Heating Mode
  No,                                     !- Account for Dedicated Outdoor Air System
  NeutralSupplyAir,                       !- Dedicated Outdoor Air System Control Strategy
  autosize,                               !- Dedicated Outdoor Air Low Setpoint Temperature for Design {C}
  autosize;                               !- Dedicated Outdoor Air High Setpoint Temperature for Design {C}

OS:ZoneHVAC:EquipmentList,
  {40c5a701-73ae-442b-9b7d-33de867cafd2}, !- Handle
  Zone HVAC Equipment List 1,             !- Name
  {c2df409a-b3bd-4f9d-bb84-0e2a2e524628}; !- Thermal Zone

OS:Space,
  {ccb91710-6f32-4566-8a5d-d8c16c34c320}, !- Handle
  living space,                           !- Name
  {0b445e30-e954-4f20-a502-c70ca2dc376d}, !- Space Type Name
  ,                                       !- Default Construction Set Name
  ,                                       !- Default Schedule Set Name
  ,                                       !- Direction of Relative North {deg}
  ,                                       !- X Origin {m}
  ,                                       !- Y Origin {m}
  ,                                       !- Z Origin {m}
  ,                                       !- Building Story Name
  {c2df409a-b3bd-4f9d-bb84-0e2a2e524628}, !- Thermal Zone Name
  ,                                       !- Part of Total Floor Area
  ,                                       !- Design Specification Outdoor Air Object Name
  {fb55b02f-5aff-417a-ad61-f90416bc9825}; !- Building Unit Name

OS:Surface,
  {9b7c1725-9d15-4e17-9c10-78389e477f95}, !- Handle
  Surface 1,                              !- Name
  Floor,                                  !- Surface Type
  ,                                       !- Construction Name
  {ccb91710-6f32-4566-8a5d-d8c16c34c320}, !- Space Name
  Surface,                                !- Outside Boundary Condition
  {c4646438-ccb8-4faa-bfac-a956781f58a5}, !- Outside Boundary Condition Object
  NoSun,                                  !- Sun Exposure
  NoWind,                                 !- Wind Exposure
  ,                                       !- View Factor to Ground
  ,                                       !- Number of Vertices
  0, -9.144, 0,                           !- X,Y,Z Vertex 1 {m}
  0, 0, 0,                                !- X,Y,Z Vertex 2 {m}
  4.572, 0, 0,                            !- X,Y,Z Vertex 3 {m}
  4.572, -9.144, 0;                       !- X,Y,Z Vertex 4 {m}

OS:Surface,
  {4dd8cdf0-d40f-44b6-9ebd-e2cea9ad0e33}, !- Handle
  Surface 2,                              !- Name
  Wall,                                   !- Surface Type
  ,                                       !- Construction Name
  {ccb91710-6f32-4566-8a5d-d8c16c34c320}, !- Space Name
  Outdoors,                               !- Outside Boundary Condition
  ,                                       !- Outside Boundary Condition Object
  SunExposed,                             !- Sun Exposure
  WindExposed,                            !- Wind Exposure
  ,                                       !- View Factor to Ground
  ,                                       !- Number of Vertices
  0, 0, 2.4384,                           !- X,Y,Z Vertex 1 {m}
  0, 0, 0,                                !- X,Y,Z Vertex 2 {m}
  0, -9.144, 0,                           !- X,Y,Z Vertex 3 {m}
  0, -9.144, 2.4384;                      !- X,Y,Z Vertex 4 {m}

OS:Surface,
  {9eb3adf1-328a-4717-a987-cfae7579dbf6}, !- Handle
  Surface 3,                              !- Name
  Wall,                                   !- Surface Type
  ,                                       !- Construction Name
  {ccb91710-6f32-4566-8a5d-d8c16c34c320}, !- Space Name
  Outdoors,                               !- Outside Boundary Condition
  ,                                       !- Outside Boundary Condition Object
  SunExposed,                             !- Sun Exposure
  WindExposed,                            !- Wind Exposure
  ,                                       !- View Factor to Ground
  ,                                       !- Number of Vertices
  4.572, 0, 2.4384,                       !- X,Y,Z Vertex 1 {m}
  4.572, 0, 0,                            !- X,Y,Z Vertex 2 {m}
  0, 0, 0,                                !- X,Y,Z Vertex 3 {m}
  0, 0, 2.4384;                           !- X,Y,Z Vertex 4 {m}

OS:Surface,
  {1bead6ff-299f-4a3d-b32c-ffecf025f3ba}, !- Handle
  Surface 4,                              !- Name
  Wall,                                   !- Surface Type
  ,                                       !- Construction Name
  {ccb91710-6f32-4566-8a5d-d8c16c34c320}, !- Space Name
  Surface,                                !- Outside Boundary Condition
  {870895c4-f45e-42c6-8f5b-1eff969e3844}, !- Outside Boundary Condition Object
  NoSun,                                  !- Sun Exposure
  NoWind,                                 !- Wind Exposure
  ,                                       !- View Factor to Ground
  ,                                       !- Number of Vertices
  4.572, -9.144, 2.4384,                  !- X,Y,Z Vertex 1 {m}
  4.572, -9.144, 0,                       !- X,Y,Z Vertex 2 {m}
  4.572, 0, 0,                            !- X,Y,Z Vertex 3 {m}
  4.572, 0, 2.4384;                       !- X,Y,Z Vertex 4 {m}

OS:Surface,
  {9cbfaa82-348e-4b53-9402-1b618177a53f}, !- Handle
  Surface 5,                              !- Name
  Wall,                                   !- Surface Type
  ,                                       !- Construction Name
  {ccb91710-6f32-4566-8a5d-d8c16c34c320}, !- Space Name
  Outdoors,                               !- Outside Boundary Condition
  ,                                       !- Outside Boundary Condition Object
  SunExposed,                             !- Sun Exposure
  WindExposed,                            !- Wind Exposure
  ,                                       !- View Factor to Ground
  ,                                       !- Number of Vertices
  0, -9.144, 2.4384,                      !- X,Y,Z Vertex 1 {m}
  0, -9.144, 0,                           !- X,Y,Z Vertex 2 {m}
  4.572, -9.144, 0,                       !- X,Y,Z Vertex 3 {m}
  4.572, -9.144, 2.4384;                  !- X,Y,Z Vertex 4 {m}

OS:Surface,
  {d83b8a02-84fc-4e43-9f0e-ff81c7eb465e}, !- Handle
  Surface 6,                              !- Name
  RoofCeiling,                            !- Surface Type
  ,                                       !- Construction Name
  {ccb91710-6f32-4566-8a5d-d8c16c34c320}, !- Space Name
  Surface,                                !- Outside Boundary Condition
  {10b2a0e0-4fc8-452e-852b-ea577c944a6a}, !- Outside Boundary Condition Object
  NoSun,                                  !- Sun Exposure
  NoWind,                                 !- Wind Exposure
  ,                                       !- View Factor to Ground
  ,                                       !- Number of Vertices
  4.572, -9.144, 2.4384,                  !- X,Y,Z Vertex 1 {m}
  4.572, 0, 2.4384,                       !- X,Y,Z Vertex 2 {m}
  0, 0, 2.4384,                           !- X,Y,Z Vertex 3 {m}
  0, -9.144, 2.4384;                      !- X,Y,Z Vertex 4 {m}

OS:SpaceType,
  {0b445e30-e954-4f20-a502-c70ca2dc376d}, !- Handle
  Space Type 1,                           !- Name
  ,                                       !- Default Construction Set Name
  ,                                       !- Default Schedule Set Name
  ,                                       !- Group Rendering Name
  ,                                       !- Design Specification Outdoor Air Object Name
  ,                                       !- Standards Building Type
  living;                                 !- Standards Space Type

OS:Space,
  {a2971788-b318-4aef-942b-653f513a2d85}, !- Handle
  living space|story 2,                   !- Name
  {0b445e30-e954-4f20-a502-c70ca2dc376d}, !- Space Type Name
  ,                                       !- Default Construction Set Name
  ,                                       !- Default Schedule Set Name
  -0,                                     !- Direction of Relative North {deg}
  0,                                      !- X Origin {m}
  0,                                      !- Y Origin {m}
  2.4384,                                 !- Z Origin {m}
  ,                                       !- Building Story Name
  {c2df409a-b3bd-4f9d-bb84-0e2a2e524628}, !- Thermal Zone Name
  ,                                       !- Part of Total Floor Area
  ,                                       !- Design Specification Outdoor Air Object Name
  {fb55b02f-5aff-417a-ad61-f90416bc9825}; !- Building Unit Name

OS:Surface,
  {334f61f4-039b-454c-828a-37ddecfde9d8}, !- Handle
  Surface 7,                              !- Name
  RoofCeiling,                            !- Surface Type
  ,                                       !- Construction Name
  {a2971788-b318-4aef-942b-653f513a2d85}, !- Space Name
  Surface,                                !- Outside Boundary Condition
  {12ddc6a9-63ca-4735-b5c2-b6c8e56c89f6}, !- Outside Boundary Condition Object
  NoSun,                                  !- Sun Exposure
  NoWind,                                 !- Wind Exposure
  ,                                       !- View Factor to Ground
  ,                                       !- Number of Vertices
  4.572, -9.144, 2.4384,                  !- X,Y,Z Vertex 1 {m}
  4.572, 0, 2.4384,                       !- X,Y,Z Vertex 2 {m}
  0, 0, 2.4384,                           !- X,Y,Z Vertex 3 {m}
  0, -9.144, 2.4384;                      !- X,Y,Z Vertex 4 {m}

OS:Surface,
  {4f5a23c0-e20b-46e0-9f76-3c7d7cdb9dcf}, !- Handle
  Surface 8,                              !- Name
  Wall,                                   !- Surface Type
  ,                                       !- Construction Name
  {a2971788-b318-4aef-942b-653f513a2d85}, !- Space Name
  Outdoors,                               !- Outside Boundary Condition
  ,                                       !- Outside Boundary Condition Object
  SunExposed,                             !- Sun Exposure
  WindExposed,                            !- Wind Exposure
  ,                                       !- View Factor to Ground
  ,                                       !- Number of Vertices
  0, 0, 2.4384,                           !- X,Y,Z Vertex 1 {m}
  0, 0, 0,                                !- X,Y,Z Vertex 2 {m}
  0, -9.144, 0,                           !- X,Y,Z Vertex 3 {m}
  0, -9.144, 2.4384;                      !- X,Y,Z Vertex 4 {m}

OS:Surface,
  {10b2a0e0-4fc8-452e-852b-ea577c944a6a}, !- Handle
  Surface 9,                              !- Name
  Floor,                                  !- Surface Type
  ,                                       !- Construction Name
  {a2971788-b318-4aef-942b-653f513a2d85}, !- Space Name
  Surface,                                !- Outside Boundary Condition
  {d83b8a02-84fc-4e43-9f0e-ff81c7eb465e}, !- Outside Boundary Condition Object
  NoSun,                                  !- Sun Exposure
  NoWind,                                 !- Wind Exposure
  ,                                       !- View Factor to Ground
  ,                                       !- Number of Vertices
  0, -9.144, 0,                           !- X,Y,Z Vertex 1 {m}
  0, 0, 0,                                !- X,Y,Z Vertex 2 {m}
  4.572, 0, 0,                            !- X,Y,Z Vertex 3 {m}
  4.572, -9.144, 0;                       !- X,Y,Z Vertex 4 {m}

OS:Surface,
  {69237eff-240b-4e5a-b92e-2004f496fc3b}, !- Handle
  Surface 10,                             !- Name
  Wall,                                   !- Surface Type
  ,                                       !- Construction Name
  {a2971788-b318-4aef-942b-653f513a2d85}, !- Space Name
  Outdoors,                               !- Outside Boundary Condition
  ,                                       !- Outside Boundary Condition Object
  SunExposed,                             !- Sun Exposure
  WindExposed,                            !- Wind Exposure
  ,                                       !- View Factor to Ground
  ,                                       !- Number of Vertices
  4.572, 0, 2.4384,                       !- X,Y,Z Vertex 1 {m}
  4.572, 0, 0,                            !- X,Y,Z Vertex 2 {m}
  0, 0, 0,                                !- X,Y,Z Vertex 3 {m}
  0, 0, 2.4384;                           !- X,Y,Z Vertex 4 {m}

OS:Surface,
  {30442f25-e814-488e-b4fe-b372a0e7a8a7}, !- Handle
  Surface 11,                             !- Name
  Wall,                                   !- Surface Type
  ,                                       !- Construction Name
  {a2971788-b318-4aef-942b-653f513a2d85}, !- Space Name
  Surface,                                !- Outside Boundary Condition
  {4b0d4542-8f60-47ca-9b2a-668e452e987d}, !- Outside Boundary Condition Object
  NoSun,                                  !- Sun Exposure
  NoWind,                                 !- Wind Exposure
  ,                                       !- View Factor to Ground
  ,                                       !- Number of Vertices
  4.572, -9.144, 2.4384,                  !- X,Y,Z Vertex 1 {m}
  4.572, -9.144, 0,                       !- X,Y,Z Vertex 2 {m}
  4.572, 0, 0,                            !- X,Y,Z Vertex 3 {m}
  4.572, 0, 2.4384;                       !- X,Y,Z Vertex 4 {m}

OS:Surface,
  {391bef8a-375c-418c-b8db-5f7d55397548}, !- Handle
  Surface 12,                             !- Name
  Wall,                                   !- Surface Type
  ,                                       !- Construction Name
  {a2971788-b318-4aef-942b-653f513a2d85}, !- Space Name
  Outdoors,                               !- Outside Boundary Condition
  ,                                       !- Outside Boundary Condition Object
  SunExposed,                             !- Sun Exposure
  WindExposed,                            !- Wind Exposure
  ,                                       !- View Factor to Ground
  ,                                       !- Number of Vertices
  0, -9.144, 2.4384,                      !- X,Y,Z Vertex 1 {m}
  0, -9.144, 0,                           !- X,Y,Z Vertex 2 {m}
  4.572, -9.144, 0,                       !- X,Y,Z Vertex 3 {m}
  4.572, -9.144, 2.4384;                  !- X,Y,Z Vertex 4 {m}

OS:ThermalZone,
  {72c0dbe8-bbd0-43d5-91cb-b31bc3a125df}, !- Handle
  living zone|unit 2,                     !- Name
  ,                                       !- Multiplier
  ,                                       !- Ceiling Height {m}
  ,                                       !- Volume {m3}
  ,                                       !- Floor Area {m2}
  ,                                       !- Zone Inside Convection Algorithm
  ,                                       !- Zone Outside Convection Algorithm
  ,                                       !- Zone Conditioning Equipment List Name
  {7b852dd1-8ba1-4024-a18e-b6f98ec60c2b}, !- Zone Air Inlet Port List
  {bd25c8b6-95d8-480e-8491-821a6580f7ed}, !- Zone Air Exhaust Port List
  {e4cac8d1-9f60-4bc9-8033-884494d34621}, !- Zone Air Node Name
  ,                                       !- Zone Return Air Node Name
  ,                                       !- Primary Daylighting Control Name
  ,                                       !- Fraction of Zone Controlled by Primary Daylighting Control
  ,                                       !- Secondary Daylighting Control Name
  ,                                       !- Fraction of Zone Controlled by Secondary Daylighting Control
  ,                                       !- Illuminance Map Name
  ,                                       !- Group Rendering Name
  ,                                       !- Thermostat Name
  No;                                     !- Use Ideal Air Loads

OS:Node,
  {d88e036b-9095-4c83-80b0-10befe0e26ea}, !- Handle
  Node 2,                                 !- Name
  {e4cac8d1-9f60-4bc9-8033-884494d34621}, !- Inlet Port
  ;                                       !- Outlet Port

OS:Connection,
  {e4cac8d1-9f60-4bc9-8033-884494d34621}, !- Handle
  {a69a86e4-b6f4-470a-ab14-94767fcd8209}, !- Name
  {72c0dbe8-bbd0-43d5-91cb-b31bc3a125df}, !- Source Object
  11,                                     !- Outlet Port
  {d88e036b-9095-4c83-80b0-10befe0e26ea}, !- Target Object
  2;                                      !- Inlet Port

OS:PortList,
  {7b852dd1-8ba1-4024-a18e-b6f98ec60c2b}, !- Handle
  {8ff34181-0340-4cda-bfbd-5e868c0c7390}, !- Name
  {72c0dbe8-bbd0-43d5-91cb-b31bc3a125df}; !- HVAC Component

OS:PortList,
  {bd25c8b6-95d8-480e-8491-821a6580f7ed}, !- Handle
  {768ae75c-7d40-40c3-9f2d-b4c4fe4395de}, !- Name
  {72c0dbe8-bbd0-43d5-91cb-b31bc3a125df}; !- HVAC Component

OS:Sizing:Zone,
  {e8a82dc1-25cc-4d52-bed5-8ca04d824fcc}, !- Handle
  {72c0dbe8-bbd0-43d5-91cb-b31bc3a125df}, !- Zone or ZoneList Name
  SupplyAirTemperature,                   !- Zone Cooling Design Supply Air Temperature Input Method
  14,                                     !- Zone Cooling Design Supply Air Temperature {C}
  11.11,                                  !- Zone Cooling Design Supply Air Temperature Difference {deltaC}
  SupplyAirTemperature,                   !- Zone Heating Design Supply Air Temperature Input Method
  40,                                     !- Zone Heating Design Supply Air Temperature {C}
  11.11,                                  !- Zone Heating Design Supply Air Temperature Difference {deltaC}
  0.0085,                                 !- Zone Cooling Design Supply Air Humidity Ratio {kg-H2O/kg-air}
  0.008,                                  !- Zone Heating Design Supply Air Humidity Ratio {kg-H2O/kg-air}
  ,                                       !- Zone Heating Sizing Factor
  ,                                       !- Zone Cooling Sizing Factor
  DesignDay,                              !- Cooling Design Air Flow Method
  ,                                       !- Cooling Design Air Flow Rate {m3/s}
  ,                                       !- Cooling Minimum Air Flow per Zone Floor Area {m3/s-m2}
  ,                                       !- Cooling Minimum Air Flow {m3/s}
  ,                                       !- Cooling Minimum Air Flow Fraction
  DesignDay,                              !- Heating Design Air Flow Method
  ,                                       !- Heating Design Air Flow Rate {m3/s}
  ,                                       !- Heating Maximum Air Flow per Zone Floor Area {m3/s-m2}
  ,                                       !- Heating Maximum Air Flow {m3/s}
  ,                                       !- Heating Maximum Air Flow Fraction
  ,                                       !- Design Zone Air Distribution Effectiveness in Cooling Mode
  ,                                       !- Design Zone Air Distribution Effectiveness in Heating Mode
  No,                                     !- Account for Dedicated Outdoor Air System
  NeutralSupplyAir,                       !- Dedicated Outdoor Air System Control Strategy
  autosize,                               !- Dedicated Outdoor Air Low Setpoint Temperature for Design {C}
  autosize;                               !- Dedicated Outdoor Air High Setpoint Temperature for Design {C}

OS:ZoneHVAC:EquipmentList,
  {a27e3321-c8ff-47ac-842c-cb80ef919c53}, !- Handle
  Zone HVAC Equipment List 2,             !- Name
  {72c0dbe8-bbd0-43d5-91cb-b31bc3a125df}; !- Thermal Zone

OS:Space,
  {720f4b48-5216-4aff-b83b-1ae2d93e2a15}, !- Handle
  living space|unit 2|story 1,            !- Name
  {0b445e30-e954-4f20-a502-c70ca2dc376d}, !- Space Type Name
  ,                                       !- Default Construction Set Name
  ,                                       !- Default Schedule Set Name
  -0,                                     !- Direction of Relative North {deg}
  0,                                      !- X Origin {m}
  0,                                      !- Y Origin {m}
  0,                                      !- Z Origin {m}
  ,                                       !- Building Story Name
  {72c0dbe8-bbd0-43d5-91cb-b31bc3a125df}, !- Thermal Zone Name
  ,                                       !- Part of Total Floor Area
  ,                                       !- Design Specification Outdoor Air Object Name
  {ea844b6b-f51c-4f89-ab1e-76e84083281b}; !- Building Unit Name

OS:Surface,
  {3c299044-49c6-4c3c-9a20-462c4e03cae2}, !- Handle