!- NOTE: Auto-generated from /test/osw_files/SFD_2000sqft_2story_UB_GRG_UA.osw

OS:Version,
  {f22932da-272e-4cab-b963-2e4fbf7ccd46}, !- Handle
  2.6.0;                                  !- Version Identifier

OS:Building,
  {d3b9a26e-2fe6-4479-8b11-d4ce937e37c5}, !- Handle
  Building 1,                             !- Name
  ,                                       !- Building Sector Type
  0,                                      !- North Axis {deg}
  ,                                       !- Nominal Floor to Floor Height {m}
  ,                                       !- Space Type Name
  ,                                       !- Default Construction Set Name
  ,                                       !- Default Schedule Set Name
  2,                                      !- Standards Number of Stories
  2,                                      !- Standards Number of Above Ground Stories
  singlefamilydetached,                   !- Standards Building Type
  1;                                      !- Standards Number of Living Units

OS:Facility,
  {44d7b212-8316-4589-9d8c-1c7018be49d7}; !- Handle

OS:Site,
  {5c13d313-b416-4a98-a33c-2d83a975a1ed}, !- Handle
  Site 1,                                 !- Name
  ,                                       !- Latitude {deg}
  ,                                       !- Longitude {deg}
  ,                                       !- Time Zone {hr}
  ,                                       !- Elevation {m}
  ;                                       !- Terrain

OS:SimulationControl,
  {26bbdd15-a9c1-41f8-a2d7-77ae6c5cf312}, !- Handle
  ,                                       !- Do Zone Sizing Calculation
  ,                                       !- Do System Sizing Calculation
  ,                                       !- Do Plant Sizing Calculation
  No;                                     !- Run Simulation for Sizing Periods

OS:Sizing:Parameters,
  {e58e40f5-6627-43cc-9bfc-9f8df3f5f95c}, !- Handle
  1.25,                                   !- Heating Sizing Factor
  1.15;                                   !- Cooling Sizing Factor

OS:Timestep,
  {15bead4a-fd56-4804-9b2f-b37854c0da11}, !- Handle
  6;                                      !- Number of Timesteps per Hour

OS:ShadowCalculation,
  {37964f54-167f-4f93-aafc-256cffe291cc}, !- Handle
  20,                                     !- Calculation Frequency
  200;                                    !- Maximum Figures in Shadow Overlap Calculations

OS:HeatBalanceAlgorithm,
  {65b8ebd1-aea3-4f02-af04-957fde0d24d7}, !- Handle
  MoisturePenetrationDepthConductionTransferFunction, !- Algorithm
  200;                                    !- Surface Temperature Upper Limit {C}

OS:RunPeriod,
  {e631b4d2-7241-42c1-a080-3527b3f947ac}, !- Handle
  Run Period 1,                           !- Name
  1,                                      !- Begin Month
  1,                                      !- Begin Day of Month
  12,                                     !- End Month
  31,                                     !- End Day of Month
  ,                                       !- Use Weather File Holidays and Special Days
  ,                                       !- Use Weather File Daylight Saving Period
  ,                                       !- Apply Weekend Holiday Rule
  ,                                       !- Use Weather File Rain Indicators
  ,                                       !- Use Weather File Snow Indicators
  ;                                       !- Number of Times Runperiod to be Repeated

OS:LifeCycleCost:Parameters,
  {c0d566d5-8e4a-463e-85e2-3b237b6eda46}, !- Handle
  ,                                       !- Analysis Type
  ,                                       !- Discounting Convention
  ,                                       !- Inflation Approach
  ,                                       !- Real Discount Rate
  ,                                       !- Nominal Discount Rate
  ,                                       !- Inflation
  ,                                       !- Base Date Month
  ,                                       !- Base Date Year
  ,                                       !- Service Date Month
  ,                                       !- Service Date Year
  ;                                       !- Length of Study Period in Years

OS:SurfaceConvectionAlgorithm:Outside,
  {63a2da12-dba1-4cfc-9b43-40dc4bf5e8a1}, !- Handle
  DOE-2;                                  !- Algorithm

OS:SurfaceConvectionAlgorithm:Inside,
  {06166838-7b92-4ba1-bd41-d310a3b98f80}, !- Handle
  TARP;                                   !- Algorithm

OS:ZoneCapacitanceMultiplier:ResearchSpecial,
  {d521c124-0616-4a3d-b7c2-967eed17fa4b}, !- Handle
  ,                                       !- Temperature Capacity Multiplier
  1,                                      !- Humidity Capacity Multiplier
  ;                                       !- Carbon Dioxide Capacity Multiplier

OS:ThermalZone,
  {726c4eae-0876-4f94-8398-f1c072d83c64}, !- Handle
  living zone,                            !- Name
  ,                                       !- Multiplier
  ,                                       !- Ceiling Height {m}
  ,                                       !- Volume {m3}
  ,                                       !- Floor Area {m2}
  ,                                       !- Zone Inside Convection Algorithm
  ,                                       !- Zone Outside Convection Algorithm
  ,                                       !- Zone Conditioning Equipment List Name
  {8b5995b2-534d-4c74-81db-8cce8ac9e94e}, !- Zone Air Inlet Port List
  {f8f5e4ee-e3df-4a73-a86d-1e685c4fe348}, !- Zone Air Exhaust Port List
  {dc17eb52-1617-4dc8-8fe0-ee14de7d59bc}, !- Zone Air Node Name
  ,                                       !- Zone Return Air Node Name
  ,                                       !- Primary Daylighting Control Name
  ,                                       !- Fraction of Zone Controlled by Primary Daylighting Control
  ,                                       !- Secondary Daylighting Control Name
  ,                                       !- Fraction of Zone Controlled by Secondary Daylighting Control
  ,                                       !- Illuminance Map Name
  ,                                       !- Group Rendering Name
  ,                                       !- Thermostat Name
  No;                                     !- Use Ideal Air Loads

OS:Node,
  {b6eff07d-a519-4a9a-8015-40e2eacd493f}, !- Handle
  Node 1,                                 !- Name
  {dc17eb52-1617-4dc8-8fe0-ee14de7d59bc}, !- Inlet Port
  ;                                       !- Outlet Port

OS:Connection,
  {dc17eb52-1617-4dc8-8fe0-ee14de7d59bc}, !- Handle
  {f683993e-6dca-4d42-bbeb-99f71c34fe82}, !- Name
  {726c4eae-0876-4f94-8398-f1c072d83c64}, !- Source Object
  11,                                     !- Outlet Port
  {b6eff07d-a519-4a9a-8015-40e2eacd493f}, !- Target Object
  2;                                      !- Inlet Port

OS:PortList,
  {8b5995b2-534d-4c74-81db-8cce8ac9e94e}, !- Handle
  {e52ca16d-4e12-4fc4-a9c0-b3c826c6d7e9}, !- Name
  {726c4eae-0876-4f94-8398-f1c072d83c64}; !- HVAC Component

OS:PortList,
  {f8f5e4ee-e3df-4a73-a86d-1e685c4fe348}, !- Handle
  {644be8ea-5e5d-4d27-9937-6f1bfd5292d1}, !- Name
  {726c4eae-0876-4f94-8398-f1c072d83c64}; !- HVAC Component

OS:Sizing:Zone,
  {904844a0-5537-4ba0-9eb1-50b6f50d224c}, !- Handle
  {726c4eae-0876-4f94-8398-f1c072d83c64}, !- Zone or ZoneList Name
  SupplyAirTemperature,                   !- Zone Cooling Design Supply Air Temperature Input Method
  14,                                     !- Zone Cooling Design Supply Air Temperature {C}
  11.11,                                  !- Zone Cooling Design Supply Air Temperature Difference {deltaC}
  SupplyAirTemperature,                   !- Zone Heating Design Supply Air Temperature Input Method
  40,                                     !- Zone Heating Design Supply Air Temperature {C}
  11.11,                                  !- Zone Heating Design Supply Air Temperature Difference {deltaC}
  0.0085,                                 !- Zone Cooling Design Supply Air Humidity Ratio {kg-H2O/kg-air}
  0.008,                                  !- Zone Heating Design Supply Air Humidity Ratio {kg-H2O/kg-air}
  ,                                       !- Zone Heating Sizing Factor
  ,                                       !- Zone Cooling Sizing Factor
  DesignDay,                              !- Cooling Design Air Flow Method
  ,                                       !- Cooling Design Air Flow Rate {m3/s}
  ,                                       !- Cooling Minimum Air Flow per Zone Floor Area {m3/s-m2}
  ,                                       !- Cooling Minimum Air Flow {m3/s}
  ,                                       !- Cooling Minimum Air Flow Fraction
  DesignDay,                              !- Heating Design Air Flow Method
  ,                                       !- Heating Design Air Flow Rate {m3/s}
  ,                                       !- Heating Maximum Air Flow per Zone Floor Area {m3/s-m2}
  ,                                       !- Heating Maximum Air Flow {m3/s}
  ,                                       !- Heating Maximum Air Flow Fraction
  ,                                       !- Design Zone Air Distribution Effectiveness in Cooling Mode
  ,                                       !- Design Zone Air Distribution Effectiveness in Heating Mode
  No,                                     !- Account for Dedicated Outdoor Air System
  NeutralSupplyAir,                       !- Dedicated Outdoor Air System Control Strategy
  autosize,                               !- Dedicated Outdoor Air Low Setpoint Temperature for Design {C}
  autosize;                               !- Dedicated Outdoor Air High Setpoint Temperature for Design {C}

OS:ZoneHVAC:EquipmentList,
  {39b0cdf5-3e34-4e2f-a3fa-5aa6acde75fb}, !- Handle
  Zone HVAC Equipment List 1,             !- Name
  {726c4eae-0876-4f94-8398-f1c072d83c64}; !- Thermal Zone

OS:ThermalZone,
  {a39ad392-8505-4032-b381-86310c4c80b0}, !- Handle
  garage zone,                            !- Name
  ,                                       !- Multiplier
  ,                                       !- Ceiling Height {m}
  ,                                       !- Volume {m3}
  ,                                       !- Floor Area {m2}
  ,                                       !- Zone Inside Convection Algorithm
  ,                                       !- Zone Outside Convection Algorithm
  ,                                       !- Zone Conditioning Equipment List Name
  {1acb6ea7-21bd-4ac1-9a3c-cfe1e5591ea1}, !- Zone Air Inlet Port List
  {ccfca198-d57d-4212-b5f3-5286727a2ce0}, !- Zone Air Exhaust Port List
  {a5579f8f-2292-4b7c-a5bd-92f077a2fe17}, !- Zone Air Node Name
  ,                                       !- Zone Return Air Node Name
  ,                                       !- Primary Daylighting Control Name
  ,                                       !- Fraction of Zone Controlled by Primary Daylighting Control
  ,                                       !- Secondary Daylighting Control Name
  ,                                       !- Fraction of Zone Controlled by Secondary Daylighting Control
  ,                                       !- Illuminance Map Name
  ,                                       !- Group Rendering Name
  ,                                       !- Thermostat Name
  No;                                     !- Use Ideal Air Loads

OS:Node,
  {5bca778a-2f51-4320-8d12-32194cbf3b86}, !- Handle
  Node 2,                                 !- Name
  {a5579f8f-2292-4b7c-a5bd-92f077a2fe17}, !- Inlet Port
  ;                                       !- Outlet Port

OS:Connection,
  {a5579f8f-2292-4b7c-a5bd-92f077a2fe17}, !- Handle
  {eb8be67c-859f-47b7-bfc2-3716b4739997}, !- Name
  {a39ad392-8505-4032-b381-86310c4c80b0}, !- Source Object
  11,                                     !- Outlet Port
  {5bca778a-2f51-4320-8d12-32194cbf3b86}, !- Target Object
  2;                                      !- Inlet Port

OS:PortList,
  {1acb6ea7-21bd-4ac1-9a3c-cfe1e5591ea1}, !- Handle
  {0309eb5d-4ef4-44d4-b604-ea79f748108b}, !- Name
  {a39ad392-8505-4032-b381-86310c4c80b0}; !- HVAC Component

OS:PortList,
  {ccfca198-d57d-4212-b5f3-5286727a2ce0}, !- Handle
  {246b2450-f066-401c-aaf9-863b1ad03bdb}, !- Name
  {a39ad392-8505-4032-b381-86310c4c80b0}; !- HVAC Component

OS:Sizing:Zone,
  {a08ba712-b905-49e2-aea1-55ed8649336e}, !- Handle
  {a39ad392-8505-4032-b381-86310c4c80b0}, !- Zone or ZoneList Name
  SupplyAirTemperature,                   !- Zone Cooling Design Supply Air Temperature Input Method
  14,                                     !- Zone Cooling Design Supply Air Temperature {C}
  11.11,                                  !- Zone Cooling Design Supply Air Temperature Difference {deltaC}
  SupplyAirTemperature,                   !- Zone Heating Design Supply Air Temperature Input Method
  40,                                     !- Zone Heating Design Supply Air Temperature {C}
  11.11,                                  !- Zone Heating Design Supply Air Temperature Difference {deltaC}
  0.0085,                                 !- Zone Cooling Design Supply Air Humidity Ratio {kg-H2O/kg-air}
  0.008,                                  !- Zone Heating Design Supply Air Humidity Ratio {kg-H2O/kg-air}
  ,                                       !- Zone Heating Sizing Factor
  ,                                       !- Zone Cooling Sizing Factor
  DesignDay,                              !- Cooling Design Air Flow Method
  ,                                       !- Cooling Design Air Flow Rate {m3/s}
  ,                                       !- Cooling Minimum Air Flow per Zone Floor Area {m3/s-m2}
  ,                                       !- Cooling Minimum Air Flow {m3/s}
  ,                                       !- Cooling Minimum Air Flow Fraction
  DesignDay,                              !- Heating Design Air Flow Method
  ,                                       !- Heating Design Air Flow Rate {m3/s}
  ,                                       !- Heating Maximum Air Flow per Zone Floor Area {m3/s-m2}
  ,                                       !- Heating Maximum Air Flow {m3/s}
  ,                                       !- Heating Maximum Air Flow Fraction
  ,                                       !- Design Zone Air Distribution Effectiveness in Cooling Mode
  ,                                       !- Design Zone Air Distribution Effectiveness in Heating Mode
  No,                                     !- Account for Dedicated Outdoor Air System
  NeutralSupplyAir,                       !- Dedicated Outdoor Air System Control Strategy
  autosize,                               !- Dedicated Outdoor Air Low Setpoint Temperature for Design {C}
  autosize;                               !- Dedicated Outdoor Air High Setpoint Temperature for Design {C}

OS:ZoneHVAC:EquipmentList,
  {8c02dc19-096b-4b30-b87d-a4fb02aede42}, !- Handle
  Zone HVAC Equipment List 2,             !- Name
  {a39ad392-8505-4032-b381-86310c4c80b0}; !- Thermal Zone

OS:Space,
  {61c6038f-90c4-496a-af87-bf291a05dc81}, !- Handle
  garage space,                           !- Name
  {989b9b89-09e2-4ddf-8dbf-bf27099bf3c9}, !- Space Type Name
  ,                                       !- Default Construction Set Name
  ,                                       !- Default Schedule Set Name
  -0,                                     !- Direction of Relative North {deg}
  0,                                      !- X Origin {m}
  0,                                      !- Y Origin {m}
  0,                                      !- Z Origin {m}
  ,                                       !- Building Story Name
  {a39ad392-8505-4032-b381-86310c4c80b0}; !- Thermal Zone Name

OS:Surface,
  {b051dd69-82f3-4a93-aac1-5c7de451c01a}, !- Handle
  Surface 1,                              !- Name
  Floor,                                  !- Surface Type
  ,                                       !- Construction Name
  {61c6038f-90c4-496a-af87-bf291a05dc81}, !- Space Name
  Foundation,                             !- Outside Boundary Condition
  ,                                       !- Outside Boundary Condition Object
  NoSun,                                  !- Sun Exposure
  NoWind,                                 !- Wind Exposure
  ,                                       !- View Factor to Ground
  ,                                       !- Number of Vertices
  8.83608947200625, 0, 0,                 !- X,Y,Z Vertex 1 {m}
  8.83608947200625, 6.096, 0,             !- X,Y,Z Vertex 2 {m}
  14.9320894720063, 6.096, 0,             !- X,Y,Z Vertex 3 {m}
  14.9320894720063, 0, 0;                 !- X,Y,Z Vertex 4 {m}

OS:Surface,
  {2e229f99-5f53-4dea-8c1d-ef9492bfb7e5}, !- Handle
  Surface 2,                              !- Name
  Wall,                                   !- Surface Type
  ,                                       !- Construction Name
  {61c6038f-90c4-496a-af87-bf291a05dc81}, !- Space Name
  Surface,                                !- Outside Boundary Condition
  {2b400683-d95d-4063-88e9-9def13a8f11c}, !- Outside Boundary Condition Object
  NoSun,                                  !- Sun Exposure
  NoWind,                                 !- Wind Exposure
  ,                                       !- View Factor to Ground
  ,                                       !- Number of Vertices
  8.83608947200625, 6.096, 2.4384,        !- X,Y,Z Vertex 1 {m}
  8.83608947200625, 6.096, 0,             !- X,Y,Z Vertex 2 {m}
  8.83608947200625, 0, 0,                 !- X,Y,Z Vertex 3 {m}
  8.83608947200625, 0, 2.4384;            !- X,Y,Z Vertex 4 {m}

OS:Surface,
  {77f242ba-bc5b-4417-95a6-7942967404d7}, !- Handle
  Surface 3,                              !- Name
  Wall,                                   !- Surface Type
  ,                                       !- Construction Name
  {61c6038f-90c4-496a-af87-bf291a05dc81}, !- Space Name
  Surface,                                !- Outside Boundary Condition
  {84d11b5f-e21c-40b3-8865-9a0dc3b470b2}, !- Outside Boundary Condition Object
  NoSun,                                  !- Sun Exposure
  NoWind,                                 !- Wind Exposure
  ,                                       !- View Factor to Ground
  ,                                       !- Number of Vertices
  14.9320894720063, 6.096, 2.4384,        !- X,Y,Z Vertex 1 {m}
  14.9320894720063, 6.096, 0,             !- X,Y,Z Vertex 2 {m}
  8.83608947200625, 6.096, 0,             !- X,Y,Z Vertex 3 {m}
  8.83608947200625, 6.096, 2.4384;        !- X,Y,Z Vertex 4 {m}

OS:Surface,
  {93e08a35-6f5a-4304-b44a-f416e83acbaf}, !- Handle
  Surface 4,                              !- Name
  Wall,                                   !- Surface Type
  ,                                       !- Construction Name
  {61c6038f-90c4-496a-af87-bf291a05dc81}, !- Space Name
  Outdoors,                               !- Outside Boundary Condition
  ,                                       !- Outside Boundary Condition Object
  SunExposed,                             !- Sun Exposure
  WindExposed,                            !- Wind Exposure
  ,                                       !- View Factor to Ground
  ,                                       !- Number of Vertices
  14.9320894720063, 0, 2.4384,            !- X,Y,Z Vertex 1 {m}
  14.9320894720063, 0, 0,                 !- X,Y,Z Vertex 2 {m}
  14.9320894720063, 6.096, 0,             !- X,Y,Z Vertex 3 {m}
  14.9320894720063, 6.096, 2.4384;        !- X,Y,Z Vertex 4 {m}

OS:Surface,
  {988d6898-efe7-4ae7-a4c2-50e244e69d6b}, !- Handle
  Surface 5,                              !- Name
  Wall,                                   !- Surface Type
  ,                                       !- Construction Name
  {61c6038f-90c4-496a-af87-bf291a05dc81}, !- Space Name
  Outdoors,                               !- Outside Boundary Condition
  ,                                       !- Outside Boundary Condition Object
  SunExposed,                             !- Sun Exposure
  WindExposed,                            !- Wind Exposure
  ,                                       !- View Factor to Ground
  ,                                       !- Number of Vertices
  8.83608947200625, 0, 2.4384,            !- X,Y,Z Vertex 1 {m}
  8.83608947200625, 0, 0,                 !- X,Y,Z Vertex 2 {m}
  14.9320894720063, 0, 0,                 !- X,Y,Z Vertex 3 {m}
  14.9320894720063, 0, 2.4384;            !- X,Y,Z Vertex 4 {m}

OS:Surface,
  {63e3b350-9f09-49be-854e-84cd7d687e2d}, !- Handle
  Surface 6,                              !- Name
  RoofCeiling,                            !- Surface Type
  ,                                       !- Construction Name
  {61c6038f-90c4-496a-af87-bf291a05dc81}, !- Space Name
  Surface,                                !- Outside Boundary Condition
  {f8d88ce9-bf3b-43ae-b56c-baf3f183073d}, !- Outside Boundary Condition Object
  NoSun,                                  !- Sun Exposure
  NoWind,                                 !- Wind Exposure
  ,                                       !- View Factor to Ground
  ,                                       !- Number of Vertices
  14.9320894720063, 0, 2.4384,            !- X,Y,Z Vertex 1 {m}
  14.9320894720063, 6.096, 2.4384,        !- X,Y,Z Vertex 2 {m}
  8.83608947200625, 6.096, 2.4384,        !- X,Y,Z Vertex 3 {m}
  8.83608947200625, 0, 2.4384;            !- X,Y,Z Vertex 4 {m}

OS:SpaceType,
  {989b9b89-09e2-4ddf-8dbf-bf27099bf3c9}, !- Handle
  Space Type 1,                           !- Name
  ,                                       !- Default Construction Set Name
  ,                                       !- Default Schedule Set Name
  ,                                       !- Group Rendering Name
  ,                                       !- Design Specification Outdoor Air Object Name
  ,                                       !- Standards Building Type
  garage;                                 !- Standards Space Type

OS:Space,
  {11981649-d53b-4f97-9725-13b1ef9c4c42}, !- Handle
  living space,                           !- Name
  {e45e4a03-dec1-4c40-916a-3d6341431683}, !- Space Type Name
  ,                                       !- Default Construction Set Name
  ,                                       !- Default Schedule Set Name
  -0,                                     !- Direction of Relative North {deg}
  0,                                      !- X Origin {m}
  0,                                      !- Y Origin {m}
  0,                                      !- Z Origin {m}
  ,                                       !- Building Story Name
  {726c4eae-0876-4f94-8398-f1c072d83c64}, !- Thermal Zone Name
  ,                                       !- Part of Total Floor Area
  ,                                       !- Design Specification Outdoor Air Object Name
  {2439064c-88b0-42e4-8df0-7a44bdcaba35}; !- Building Unit Name

OS:Surface,
  {302743de-3ae2-4015-bfe5-bb3e024c9369}, !- Handle
  Surface 7,                              !- Name
  Floor,                                  !- Surface Type
  ,                                       !- Construction Name
  {11981649-d53b-4f97-9725-13b1ef9c4c42}, !- Space Name
  Surface,                                !- Outside Boundary Condition
  {c6b23b70-003b-421b-b85a-8154e80379ec}, !- Outside Boundary Condition Object
  NoSun,                                  !- Sun Exposure
  NoWind,                                 !- Wind Exposure
  ,                                       !- View Factor to Ground
  ,                                       !- Number of Vertices
  0, 0, 0,                                !- X,Y,Z Vertex 1 {m}
  0, 7.46604473600313, 0,                 !- X,Y,Z Vertex 2 {m}
  14.9320894720063, 7.46604473600313, 0,  !- X,Y,Z Vertex 3 {m}
  14.9320894720063, 6.096, 0,             !- X,Y,Z Vertex 4 {m}
  8.83608947200625, 6.096, 0,             !- X,Y,Z Vertex 5 {m}
  8.83608947200625, 0, 0;                 !- X,Y,Z Vertex 6 {m}

OS:Surface,
  {caca564c-b1fb-44fd-9a09-58016cd9a06b}, !- Handle
  Surface 8,                              !- Name
  Wall,                                   !- Surface Type
  ,                                       !- Construction Name
  {11981649-d53b-4f97-9725-13b1ef9c4c42}, !- Space Name
  Outdoors,                               !- Outside Boundary Condition
  ,                                       !- Outside Boundary Condition Object
  SunExposed,                             !- Sun Exposure
  WindExposed,                            !- Wind Exposure
  ,                                       !- View Factor to Ground
  ,                                       !- Number of Vertices
  0, 7.46604473600313, 2.4384,            !- X,Y,Z Vertex 1 {m}
  0, 7.46604473600313, 0,                 !- X,Y,Z Vertex 2 {m}
  0, 0, 0,                                !- X,Y,Z Vertex 3 {m}
  0, 0, 2.4384;                           !- X,Y,Z Vertex 4 {m}

OS:Surface,
  {4a73985e-04de-4822-9443-26f1bcef9234}, !- Handle
  Surface 9,                              !- Name
  Wall,                                   !- Surface Type
  ,                                       !- Construction Name
  {11981649-d53b-4f97-9725-13b1ef9c4c42}, !- Space Name
  Outdoors,                               !- Outside Boundary Condition
  ,                                       !- Outside Boundary Condition Object
  SunExposed,                             !- Sun Exposure
  WindExposed,                            !- Wind Exposure
  ,                                       !- View Factor to Ground
  ,                                       !- Number of Vertices
  14.9320894720063, 7.46604473600313, 2.4384, !- X,Y,Z Vertex 1 {m}
  14.9320894720063, 7.46604473600313, 0,  !- X,Y,Z Vertex 2 {m}
  0, 7.46604473600313, 0,                 !- X,Y,Z Vertex 3 {m}
  0, 7.46604473600313, 2.4384;            !- X,Y,Z Vertex 4 {m}

OS:Surface,
  {54ff302d-b993-4c4b-b289-36f6615470e7}, !- Handle
  Surface 10,                             !- Name
  Wall,                                   !- Surface Type
  ,                                       !- Construction Name
  {11981649-d53b-4f97-9725-13b1ef9c4c42}, !- Space Name
  Outdoors,                               !- Outside Boundary Condition
  ,                                       !- Outside Boundary Condition Object
  SunExposed,                             !- Sun Exposure
  WindExposed,                            !- Wind Exposure
  ,                                       !- View Factor to Ground
  ,                                       !- Number of Vertices
  14.9320894720063, 6.096, 2.4384,        !- X,Y,Z Vertex 1 {m}
  14.9320894720063, 6.096, 0,             !- X,Y,Z Vertex 2 {m}
  14.9320894720063, 7.46604473600313, 0,  !- X,Y,Z Vertex 3 {m}
  14.9320894720063, 7.46604473600313, 2.4384; !- X,Y,Z Vertex 4 {m}

OS:Surface,
  {84d11b5f-e21c-40b3-8865-9a0dc3b470b2}, !- Handle
  Surface 11,                             !- Name
  Wall,                                   !- Surface Type
  ,                                       !- Construction Name
  {11981649-d53b-4f97-9725-13b1ef9c4c42}, !- Space Name
  Surface,                                !- Outside Boundary Condition
  {77f242ba-bc5b-4417-95a6-7942967404d7}, !- Outside Boundary Condition Object
  NoSun,                                  !- Sun Exposure
  NoWind,                                 !- Wind Exposure
  ,                                       !- View Factor to Ground
  ,                                       !- Number of Vertices
  8.83608947200625, 6.096, 2.4384,        !- X,Y,Z Vertex 1 {m}
  8.83608947200625, 6.096, 0,             !- X,Y,Z Vertex 2 {m}
  14.9320894720063, 6.096, 0,             !- X,Y,Z Vertex 3 {m}
  14.9320894720063, 6.096, 2.4384;        !- X,Y,Z Vertex 4 {m}

OS:Surface,
  {2b400683-d95d-4063-88e9-9def13a8f11c}, !- Handle
  Surface 12,                             !- Name
  Wall,                                   !- Surface Type
  ,                                       !- Construction Name
  {11981649-d53b-4f97-9725-13b1ef9c4c42}, !- Space Name
  Surface,                                !- Outside Boundary Condition
  {2e229f99-5f53-4dea-8c1d-ef9492bfb7e5}, !- Outside Boundary Condition Object
  NoSun,                                  !- Sun Exposure
  NoWind,                                 !- Wind Exposure
  ,                                       !- View Factor to Ground
  ,                                       !- Number of Vertices
  8.83608947200625, 0, 2.4384,            !- X,Y,Z Vertex 1 {m}
  8.83608947200625, 0, 0,                 !- X,Y,Z Vertex 2 {m}
  8.83608947200625, 6.096, 0,             !- X,Y,Z Vertex 3 {m}
  8.83608947200625, 6.096, 2.4384;        !- X,Y,Z Vertex 4 {m}

OS:Surface,
  {bacacb43-cf1b-4e18-8c5b-a50c633a1879}, !- Handle
  Surface 13,                             !- Name
  Wall,                                   !- Surface Type
  ,                                       !- Construction Name
  {11981649-d53b-4f97-9725-13b1ef9c4c42}, !- Space Name
  Outdoors,                               !- Outside Boundary Condition
  ,                                       !- Outside Boundary Condition Object
  SunExposed,                             !- Sun Exposure
  WindExposed,                            !- Wind Exposure
  ,                                       !- View Factor to Ground
  ,                                       !- Number of Vertices
  0, 0, 2.4384,                           !- X,Y,Z Vertex 1 {m}
  0, 0, 0,                                !- X,Y,Z Vertex 2 {m}
  8.83608947200625, 0, 0,                 !- X,Y,Z Vertex 3 {m}
  8.83608947200625, 0, 2.4384;            !- X,Y,Z Vertex 4 {m}

OS:Surface,
  {4a529f59-7709-42b7-bf96-cbd2992d1d06}, !- Handle
  Surface 14,                             !- Name