!- NOTE: Auto-generated from /test/osw_files/SFD_2000sqft_2story_UB_GRG_UA.osw

OS:Version,
  {8d4c618e-9cab-41ef-9516-b671fe66dc57}, !- Handle
  2.6.2;                                  !- Version Identifier

OS:Building,
  {e1ea1014-7d7c-499e-a2a5-c8d1824a1e12}, !- Handle
  Building 1,                             !- Name
  ,                                       !- Building Sector Type
  0,                                      !- North Axis {deg}
  ,                                       !- Nominal Floor to Floor Height {m}
  ,                                       !- Space Type Name
  ,                                       !- Default Construction Set Name
  ,                                       !- Default Schedule Set Name
  2,                                      !- Standards Number of Stories
  2,                                      !- Standards Number of Above Ground Stories
  singlefamilydetached,                   !- Standards Building Type
  1;                                      !- Standards Number of Living Units

OS:Facility,
  {a10bd67d-6e1d-4326-baff-9a944563bbf6}; !- Handle

OS:Site,
  {b7e657fa-1859-42d7-aa34-6fbe14017663}, !- Handle
  Site 1,                                 !- Name
  ,                                       !- Latitude {deg}
  ,                                       !- Longitude {deg}
  ,                                       !- Time Zone {hr}
  ,                                       !- Elevation {m}
  ;                                       !- Terrain

OS:SimulationControl,
  {5300ca2e-aaf3-4774-bc7b-e70f7622fa98}; !- Handle

OS:Sizing:Parameters,
  {e30dd487-d1df-4b6f-8987-9ae031ea3d2c}, !- Handle
  1.25,                                   !- Heating Sizing Factor
  1.15;                                   !- Cooling Sizing Factor

OS:Timestep,
  {22515fe9-b2a0-4f66-adc1-91135d48086c}, !- Handle
  6;                                      !- Number of Timesteps per Hour

OS:ShadowCalculation,
  {4057e7e3-cbcf-46fa-b443-a6c77e74f3f4}, !- Handle
  20,                                     !- Calculation Frequency
  15000;                                  !- Maximum Figures in Shadow Overlap Calculations

OS:HeatBalanceAlgorithm,
  {6c3f6a0f-d52f-4ca4-b973-b52fb760372c}, !- Handle
  ConductionTransferFunction,             !- Algorithm
  200;                                    !- Surface Temperature Upper Limit {C}

OS:RunPeriod,
  {148adf04-60b9-48cc-909b-c06fe489a68f}, !- Handle
  Run Period 1,                           !- Name
  1,                                      !- Begin Month
  1,                                      !- Begin Day of Month
  12,                                     !- End Month
  31,                                     !- End Day of Month
  ,                                       !- Use Weather File Holidays and Special Days
  ,                                       !- Use Weather File Daylight Saving Period
  ,                                       !- Apply Weekend Holiday Rule
  ,                                       !- Use Weather File Rain Indicators
  ,                                       !- Use Weather File Snow Indicators
  ;                                       !- Number of Times Runperiod to be Repeated

OS:LifeCycleCost:Parameters,
  {88ccec72-b98f-4a9b-90a2-08af41c6494b}, !- Handle
  ,                                       !- Analysis Type
  ,                                       !- Discounting Convention
  ,                                       !- Inflation Approach
  ,                                       !- Real Discount Rate
  ,                                       !- Nominal Discount Rate
  ,                                       !- Inflation
  ,                                       !- Base Date Month
  ,                                       !- Base Date Year
  ,                                       !- Service Date Month
  ,                                       !- Service Date Year
  ;                                       !- Length of Study Period in Years

OS:ThermalZone,
  {fe92b3a8-14e3-4ba6-8d47-fb8e9c6c0d61}, !- Handle
  living zone,                            !- Name
  ,                                       !- Multiplier
  ,                                       !- Ceiling Height {m}
  ,                                       !- Volume {m3}
  ,                                       !- Floor Area {m2}
  ,                                       !- Zone Inside Convection Algorithm
  ,                                       !- Zone Outside Convection Algorithm
  ,                                       !- Zone Conditioning Equipment List Name
  {e8142688-48dc-4350-a569-1b82aba2d38d}, !- Zone Air Inlet Port List
  {7f36555b-439a-4c91-ba02-51ab83466ae4}, !- Zone Air Exhaust Port List
  {4afc1f94-3d92-4867-a0cd-2c2370c7ad4f}, !- Zone Air Node Name
  {2c226715-2563-4cdb-999b-052e649cc758}, !- Zone Return Air Port List
  ,                                       !- Primary Daylighting Control Name
  ,                                       !- Fraction of Zone Controlled by Primary Daylighting Control
  ,                                       !- Secondary Daylighting Control Name
  ,                                       !- Fraction of Zone Controlled by Secondary Daylighting Control
  ,                                       !- Illuminance Map Name
  ,                                       !- Group Rendering Name
  ,                                       !- Thermostat Name
  No;                                     !- Use Ideal Air Loads

OS:Node,
  {dc99e44b-89a4-491c-a408-bbe881e70e78}, !- Handle
  Node 1,                                 !- Name
  {4afc1f94-3d92-4867-a0cd-2c2370c7ad4f}, !- Inlet Port
  ;                                       !- Outlet Port

OS:Connection,
  {4afc1f94-3d92-4867-a0cd-2c2370c7ad4f}, !- Handle
  {cdbd1b54-52a9-4717-9ad4-e830d1f67ce6}, !- Name
  {fe92b3a8-14e3-4ba6-8d47-fb8e9c6c0d61}, !- Source Object
  11,                                     !- Outlet Port
  {dc99e44b-89a4-491c-a408-bbe881e70e78}, !- Target Object
  2;                                      !- Inlet Port

OS:PortList,
  {e8142688-48dc-4350-a569-1b82aba2d38d}, !- Handle
  {92150e4b-72a5-4da4-926a-890095587b77}, !- Name
  {fe92b3a8-14e3-4ba6-8d47-fb8e9c6c0d61}; !- HVAC Component

OS:PortList,
  {7f36555b-439a-4c91-ba02-51ab83466ae4}, !- Handle
  {74ffe849-9874-45a8-bc1b-419624a4cec6}, !- Name
  {fe92b3a8-14e3-4ba6-8d47-fb8e9c6c0d61}; !- HVAC Component

OS:PortList,
  {2c226715-2563-4cdb-999b-052e649cc758}, !- Handle
  {93b237dd-383c-45cb-ba84-827110655647}, !- Name
  {fe92b3a8-14e3-4ba6-8d47-fb8e9c6c0d61}; !- HVAC Component

OS:Sizing:Zone,
  {7f942616-c4e5-4028-8301-22ec83fcb4fa}, !- Handle
  {fe92b3a8-14e3-4ba6-8d47-fb8e9c6c0d61}, !- Zone or ZoneList Name
  SupplyAirTemperature,                   !- Zone Cooling Design Supply Air Temperature Input Method
  14,                                     !- Zone Cooling Design Supply Air Temperature {C}
  11.11,                                  !- Zone Cooling Design Supply Air Temperature Difference {deltaC}
  SupplyAirTemperature,                   !- Zone Heating Design Supply Air Temperature Input Method
  40,                                     !- Zone Heating Design Supply Air Temperature {C}
  11.11,                                  !- Zone Heating Design Supply Air Temperature Difference {deltaC}
  0.0085,                                 !- Zone Cooling Design Supply Air Humidity Ratio {kg-H2O/kg-air}
  0.008,                                  !- Zone Heating Design Supply Air Humidity Ratio {kg-H2O/kg-air}
  ,                                       !- Zone Heating Sizing Factor
  ,                                       !- Zone Cooling Sizing Factor
  DesignDay,                              !- Cooling Design Air Flow Method
  ,                                       !- Cooling Design Air Flow Rate {m3/s}
  ,                                       !- Cooling Minimum Air Flow per Zone Floor Area {m3/s-m2}
  ,                                       !- Cooling Minimum Air Flow {m3/s}
  ,                                       !- Cooling Minimum Air Flow Fraction
  DesignDay,                              !- Heating Design Air Flow Method
  ,                                       !- Heating Design Air Flow Rate {m3/s}
  ,                                       !- Heating Maximum Air Flow per Zone Floor Area {m3/s-m2}
  ,                                       !- Heating Maximum Air Flow {m3/s}
  ,                                       !- Heating Maximum Air Flow Fraction
  ,                                       !- Design Zone Air Distribution Effectiveness in Cooling Mode
  ,                                       !- Design Zone Air Distribution Effectiveness in Heating Mode
  No,                                     !- Account for Dedicated Outdoor Air System
  NeutralSupplyAir,                       !- Dedicated Outdoor Air System Control Strategy
  autosize,                               !- Dedicated Outdoor Air Low Setpoint Temperature for Design {C}
  autosize;                               !- Dedicated Outdoor Air High Setpoint Temperature for Design {C}

OS:ZoneHVAC:EquipmentList,
  {6a457928-da40-4c9c-ab5e-279fbc78dc67}, !- Handle
  Zone HVAC Equipment List 1,             !- Name
  {fe92b3a8-14e3-4ba6-8d47-fb8e9c6c0d61}; !- Thermal Zone

OS:ThermalZone,
  {8997baec-1bf7-4e59-90b6-db3dce421b3b}, !- Handle
  garage zone,                            !- Name
  ,                                       !- Multiplier
  ,                                       !- Ceiling Height {m}
  ,                                       !- Volume {m3}
  ,                                       !- Floor Area {m2}
  ,                                       !- Zone Inside Convection Algorithm
  ,                                       !- Zone Outside Convection Algorithm
  ,                                       !- Zone Conditioning Equipment List Name
  {ef6db6e4-2c7d-4bd0-ac5a-74909126baed}, !- Zone Air Inlet Port List
  {45f07610-551e-4996-b269-85216295a50f}, !- Zone Air Exhaust Port List
  {2460f822-35f6-42d9-822b-f5d3bdf5d0e3}, !- Zone Air Node Name
  {1659a3e2-5ebc-4a8f-a5a2-f3d6e1c0f34b}, !- Zone Return Air Port List
  ,                                       !- Primary Daylighting Control Name
  ,                                       !- Fraction of Zone Controlled by Primary Daylighting Control
  ,                                       !- Secondary Daylighting Control Name
  ,                                       !- Fraction of Zone Controlled by Secondary Daylighting Control
  ,                                       !- Illuminance Map Name
  ,                                       !- Group Rendering Name
  ,                                       !- Thermostat Name
  No;                                     !- Use Ideal Air Loads

OS:Node,
  {d6e8f540-c57a-4356-aaee-61c75b5251b0}, !- Handle
  Node 2,                                 !- Name
  {2460f822-35f6-42d9-822b-f5d3bdf5d0e3}, !- Inlet Port
  ;                                       !- Outlet Port

OS:Connection,
  {2460f822-35f6-42d9-822b-f5d3bdf5d0e3}, !- Handle
  {fef6211d-9544-439d-acbd-de86061b7ae1}, !- Name
  {8997baec-1bf7-4e59-90b6-db3dce421b3b}, !- Source Object
  11,                                     !- Outlet Port
  {d6e8f540-c57a-4356-aaee-61c75b5251b0}, !- Target Object
  2;                                      !- Inlet Port

OS:PortList,
  {ef6db6e4-2c7d-4bd0-ac5a-74909126baed}, !- Handle
  {965108c6-2b0a-4d4d-b1ee-0972a8966ba8}, !- Name
  {8997baec-1bf7-4e59-90b6-db3dce421b3b}; !- HVAC Component

OS:PortList,
  {45f07610-551e-4996-b269-85216295a50f}, !- Handle
  {771f48be-2f62-4840-bbb0-25ec6225baaf}, !- Name
  {8997baec-1bf7-4e59-90b6-db3dce421b3b}; !- HVAC Component

OS:PortList,
  {1659a3e2-5ebc-4a8f-a5a2-f3d6e1c0f34b}, !- Handle
  {8e70f364-e549-4d1a-afb5-bd76fc78d58a}, !- Name
  {8997baec-1bf7-4e59-90b6-db3dce421b3b}; !- HVAC Component

OS:Sizing:Zone,
  {2ac7f2fc-328e-4327-8ae8-14b4b184e4f8}, !- Handle
  {8997baec-1bf7-4e59-90b6-db3dce421b3b}, !- Zone or ZoneList Name
  SupplyAirTemperature,                   !- Zone Cooling Design Supply Air Temperature Input Method
  14,                                     !- Zone Cooling Design Supply Air Temperature {C}
  11.11,                                  !- Zone Cooling Design Supply Air Temperature Difference {deltaC}
  SupplyAirTemperature,                   !- Zone Heating Design Supply Air Temperature Input Method
  40,                                     !- Zone Heating Design Supply Air Temperature {C}
  11.11,                                  !- Zone Heating Design Supply Air Temperature Difference {deltaC}
  0.0085,                                 !- Zone Cooling Design Supply Air Humidity Ratio {kg-H2O/kg-air}
  0.008,                                  !- Zone Heating Design Supply Air Humidity Ratio {kg-H2O/kg-air}
  ,                                       !- Zone Heating Sizing Factor
  ,                                       !- Zone Cooling Sizing Factor
  DesignDay,                              !- Cooling Design Air Flow Method
  ,                                       !- Cooling Design Air Flow Rate {m3/s}
  ,                                       !- Cooling Minimum Air Flow per Zone Floor Area {m3/s-m2}
  ,                                       !- Cooling Minimum Air Flow {m3/s}
  ,                                       !- Cooling Minimum Air Flow Fraction
  DesignDay,                              !- Heating Design Air Flow Method
  ,                                       !- Heating Design Air Flow Rate {m3/s}
  ,                                       !- Heating Maximum Air Flow per Zone Floor Area {m3/s-m2}
  ,                                       !- Heating Maximum Air Flow {m3/s}
  ,                                       !- Heating Maximum Air Flow Fraction
  ,                                       !- Design Zone Air Distribution Effectiveness in Cooling Mode
  ,                                       !- Design Zone Air Distribution Effectiveness in Heating Mode
  No,                                     !- Account for Dedicated Outdoor Air System
  NeutralSupplyAir,                       !- Dedicated Outdoor Air System Control Strategy
  autosize,                               !- Dedicated Outdoor Air Low Setpoint Temperature for Design {C}
  autosize;                               !- Dedicated Outdoor Air High Setpoint Temperature for Design {C}

OS:ZoneHVAC:EquipmentList,
  {719adb66-f0cc-4315-9064-e61126acc3b0}, !- Handle
  Zone HVAC Equipment List 2,             !- Name
  {8997baec-1bf7-4e59-90b6-db3dce421b3b}; !- Thermal Zone

OS:Space,
  {2f838d7d-cd9e-4952-bcd2-f6b816ca57e2}, !- Handle
  garage space,                           !- Name
  {c93aaf63-c024-4cfa-aa87-91fd046e808b}, !- Space Type Name
  ,                                       !- Default Construction Set Name
  ,                                       !- Default Schedule Set Name
  -0,                                     !- Direction of Relative North {deg}
  0,                                      !- X Origin {m}
  0,                                      !- Y Origin {m}
  0,                                      !- Z Origin {m}
  ,                                       !- Building Story Name
  {8997baec-1bf7-4e59-90b6-db3dce421b3b}; !- Thermal Zone Name

OS:Surface,
  {ce186c02-08d1-4915-b249-fdffabdee3ea}, !- Handle
  Surface 1,                              !- Name
  Floor,                                  !- Surface Type
  ,                                       !- Construction Name
  {2f838d7d-cd9e-4952-bcd2-f6b816ca57e2}, !- Space Name
  Foundation,                             !- Outside Boundary Condition
  ,                                       !- Outside Boundary Condition Object
  NoSun,                                  !- Sun Exposure
  NoWind,                                 !- Wind Exposure
  ,                                       !- View Factor to Ground
  ,                                       !- Number of Vertices
  8.83608947200625, 0, 0,                 !- X,Y,Z Vertex 1 {m}
  8.83608947200625, 6.096, 0,             !- X,Y,Z Vertex 2 {m}
  14.9320894720063, 6.096, 0,             !- X,Y,Z Vertex 3 {m}
  14.9320894720063, 0, 0;                 !- X,Y,Z Vertex 4 {m}

OS:Surface,
  {0721b2eb-43f4-45df-a8ef-bf728c9d4dad}, !- Handle
  Surface 2,                              !- Name
  Wall,                                   !- Surface Type
  ,                                       !- Construction Name
  {2f838d7d-cd9e-4952-bcd2-f6b816ca57e2}, !- Space Name
  Surface,                                !- Outside Boundary Condition
  {7393b1e9-a82c-437a-8438-82d0597d96af}, !- Outside Boundary Condition Object
  NoSun,                                  !- Sun Exposure
  NoWind,                                 !- Wind Exposure
  ,                                       !- View Factor to Ground
  ,                                       !- Number of Vertices
  8.83608947200625, 6.096, 2.4384,        !- X,Y,Z Vertex 1 {m}
  8.83608947200625, 6.096, 0,             !- X,Y,Z Vertex 2 {m}
  8.83608947200625, 0, 0,                 !- X,Y,Z Vertex 3 {m}
  8.83608947200625, 0, 2.4384;            !- X,Y,Z Vertex 4 {m}

OS:Surface,
  {3487b1ff-55fc-4ecc-b0ca-856b437a141f}, !- Handle
  Surface 3,                              !- Name
  Wall,                                   !- Surface Type
  ,                                       !- Construction Name
  {2f838d7d-cd9e-4952-bcd2-f6b816ca57e2}, !- Space Name
  Surface,                                !- Outside Boundary Condition
  {96ac3cd0-74f0-4476-80e0-b608a652b8fe}, !- Outside Boundary Condition Object
  NoSun,                                  !- Sun Exposure
  NoWind,                                 !- Wind Exposure
  ,                                       !- View Factor to Ground
  ,                                       !- Number of Vertices
  14.9320894720063, 6.096, 2.4384,        !- X,Y,Z Vertex 1 {m}
  14.9320894720063, 6.096, 0,             !- X,Y,Z Vertex 2 {m}
  8.83608947200625, 6.096, 0,             !- X,Y,Z Vertex 3 {m}
  8.83608947200625, 6.096, 2.4384;        !- X,Y,Z Vertex 4 {m}

OS:Surface,
  {201a8e44-130f-4291-b44c-d4cfa720a826}, !- Handle
  Surface 4,                              !- Name
  Wall,                                   !- Surface Type
  ,                                       !- Construction Name
  {2f838d7d-cd9e-4952-bcd2-f6b816ca57e2}, !- Space Name
  Outdoors,                               !- Outside Boundary Condition
  ,                                       !- Outside Boundary Condition Object
  SunExposed,                             !- Sun Exposure
  WindExposed,                            !- Wind Exposure
  ,                                       !- View Factor to Ground
  ,                                       !- Number of Vertices
  14.9320894720063, 0, 2.4384,            !- X,Y,Z Vertex 1 {m}
  14.9320894720063, 0, 0,                 !- X,Y,Z Vertex 2 {m}
  14.9320894720063, 6.096, 0,             !- X,Y,Z Vertex 3 {m}
  14.9320894720063, 6.096, 2.4384;        !- X,Y,Z Vertex 4 {m}

OS:Surface,
  {ae6b99da-cdd7-46d9-8fb8-eb90f7b5367e}, !- Handle
  Surface 5,                              !- Name
  Wall,                                   !- Surface Type
  ,                                       !- Construction Name
  {2f838d7d-cd9e-4952-bcd2-f6b816ca57e2}, !- Space Name
  Outdoors,                               !- Outside Boundary Condition
  ,                                       !- Outside Boundary Condition Object
  SunExposed,                             !- Sun Exposure
  WindExposed,                            !- Wind Exposure
  ,                                       !- View Factor to Ground
  ,                                       !- Number of Vertices
  8.83608947200625, 0, 2.4384,            !- X,Y,Z Vertex 1 {m}
  8.83608947200625, 0, 0,                 !- X,Y,Z Vertex 2 {m}
  14.9320894720063, 0, 0,                 !- X,Y,Z Vertex 3 {m}
  14.9320894720063, 0, 2.4384;            !- X,Y,Z Vertex 4 {m}

OS:Surface,
  {b933d06b-caf4-4881-a31a-73b72be012ba}, !- Handle
  Surface 6,                              !- Name
  RoofCeiling,                            !- Surface Type
  ,                                       !- Construction Name
  {2f838d7d-cd9e-4952-bcd2-f6b816ca57e2}, !- Space Name
  Surface,                                !- Outside Boundary Condition
  {d0128ebc-79c7-403f-b444-b08377f87b51}, !- Outside Boundary Condition Object
  NoSun,                                  !- Sun Exposure
  NoWind,                                 !- Wind Exposure
  ,                                       !- View Factor to Ground
  ,                                       !- Number of Vertices
  14.9320894720063, 0, 2.4384,            !- X,Y,Z Vertex 1 {m}
  14.9320894720063, 6.096, 2.4384,        !- X,Y,Z Vertex 2 {m}
  8.83608947200625, 6.096, 2.4384,        !- X,Y,Z Vertex 3 {m}
  8.83608947200625, 0, 2.4384;            !- X,Y,Z Vertex 4 {m}

OS:SpaceType,
  {c93aaf63-c024-4cfa-aa87-91fd046e808b}, !- Handle
  Space Type 1,                           !- Name
  ,                                       !- Default Construction Set Name
  ,                                       !- Default Schedule Set Name
  ,                                       !- Group Rendering Name
  ,                                       !- Design Specification Outdoor Air Object Name
  ,                                       !- Standards Building Type
  garage;                                 !- Standards Space Type

OS:Space,
  {233fc3a1-9172-4300-ad58-b71804d7840e}, !- Handle
  living space,                           !- Name
  {23357633-70b3-47ef-9ed9-12d5467cbd31}, !- Space Type Name
  ,                                       !- Default Construction Set Name
  ,                                       !- Default Schedule Set Name
  -0,                                     !- Direction of Relative North {deg}
  0,                                      !- X Origin {m}
  0,                                      !- Y Origin {m}
  0,                                      !- Z Origin {m}
  ,                                       !- Building Story Name
  {fe92b3a8-14e3-4ba6-8d47-fb8e9c6c0d61}, !- Thermal Zone Name
  ,                                       !- Part of Total Floor Area
  ,                                       !- Design Specification Outdoor Air Object Name
  {d55b6e67-3aa3-44c6-8159-134c109b8295}; !- Building Unit Name

OS:Surface,
  {956508c4-7099-4a7a-a61d-65d8169fe019}, !- Handle
  Surface 7,                              !- Name
  Floor,                                  !- Surface Type
  ,                                       !- Construction Name
  {233fc3a1-9172-4300-ad58-b71804d7840e}, !- Space Name
  Surface,                                !- Outside Boundary Condition
  {ed5472bd-27c8-42dc-a3b2-303c4c26f4da}, !- Outside Boundary Condition Object
  NoSun,                                  !- Sun Exposure
  NoWind,                                 !- Wind Exposure
  ,                                       !- View Factor to Ground
  ,                                       !- Number of Vertices
  0, 0, 0,                                !- X,Y,Z Vertex 1 {m}
  0, 7.46604473600313, 0,                 !- X,Y,Z Vertex 2 {m}
  14.9320894720063, 7.46604473600313, 0,  !- X,Y,Z Vertex 3 {m}
  14.9320894720063, 6.096, 0,             !- X,Y,Z Vertex 4 {m}
  8.83608947200625, 6.096, 0,             !- X,Y,Z Vertex 5 {m}
  8.83608947200625, 0, 0;                 !- X,Y,Z Vertex 6 {m}

OS:Surface,
  {f98bad70-56b5-4656-98da-66785c845725}, !- Handle
  Surface 8,                              !- Name
  Wall,                                   !- Surface Type
  ,                                       !- Construction Name
  {233fc3a1-9172-4300-ad58-b71804d7840e}, !- Space Name
  Outdoors,                               !- Outside Boundary Condition
  ,                                       !- Outside Boundary Condition Object
  SunExposed,                             !- Sun Exposure
  WindExposed,                            !- Wind Exposure
  ,                                       !- View Factor to Ground
  ,                                       !- Number of Vertices
  0, 7.46604473600313, 2.4384,            !- X,Y,Z Vertex 1 {m}
  0, 7.46604473600313, 0,                 !- X,Y,Z Vertex 2 {m}
  0, 0, 0,                                !- X,Y,Z Vertex 3 {m}
  0, 0, 2.4384;                           !- X,Y,Z Vertex 4 {m}

OS:Surface,
  {4a6211ea-20cc-40ba-89d6-f3203f9a501b}, !- Handle
  Surface 9,                              !- Name
  Wall,                                   !- Surface Type
  ,                                       !- Construction Name
  {233fc3a1-9172-4300-ad58-b71804d7840e}, !- Space Name
  Outdoors,                               !- Outside Boundary Condition
  ,                                       !- Outside Boundary Condition Object
  SunExposed,                             !- Sun Exposure
  WindExposed,                            !- Wind Exposure
  ,                                       !- View Factor to Ground
  ,                                       !- Number of Vertices
  14.9320894720063, 7.46604473600313, 2.4384, !- X,Y,Z Vertex 1 {m}
  14.9320894720063, 7.46604473600313, 0,  !- X,Y,Z Vertex 2 {m}
  0, 7.46604473600313, 0,                 !- X,Y,Z Vertex 3 {m}
  0, 7.46604473600313, 2.4384;            !- X,Y,Z Vertex 4 {m}

OS:Surface,
  {217dc098-f12f-4f3e-8f1f-26081c04e0ba}, !- Handle
  Surface 10,                             !- Name
  Wall,                                   !- Surface Type
  ,                                       !- Construction Name
  {233fc3a1-9172-4300-ad58-b71804d7840e}, !- Space Name
  Outdoors,                               !- Outside Boundary Condition
  ,                                       !- Outside Boundary Condition Object
  SunExposed,                             !- Sun Exposure
  WindExposed,                            !- Wind Exposure
  ,                                       !- View Factor to Ground
  ,                                       !- Number of Vertices
  14.9320894720063, 6.096, 2.4384,        !- X,Y,Z Vertex 1 {m}
  14.9320894720063, 6.096, 0,             !- X,Y,Z Vertex 2 {m}
  14.9320894720063, 7.46604473600313, 0,  !- X,Y,Z Vertex 3 {m}
  14.9320894720063, 7.46604473600313, 2.4384; !- X,Y,Z Vertex 4 {m}

OS:Surface,
  {96ac3cd0-74f0-4476-80e0-b608a652b8fe}, !- Handle
  Surface 11,                             !- Name
  Wall,                                   !- Surface Type
  ,                                       !- Construction Name
  {233fc3a1-9172-4300-ad58-b71804d7840e}, !- Space Name
  Surface,                                !- Outside Boundary Condition
  {3487b1ff-55fc-4ecc-b0ca-856b437a141f}, !- Outside Boundary Condition Object
  NoSun,                                  !- Sun Exposure
  NoWind,                                 !- Wind Exposure
  ,                                       !- View Factor to Ground
  ,                                       !- Number of Vertices
  8.83608947200625, 6.096, 2.4384,        !- X,Y,Z Vertex 1 {m}
  8.83608947200625, 6.096, 0,             !- X,Y,Z Vertex 2 {m}
  14.9320894720063, 6.096, 0,             !- X,Y,Z Vertex 3 {m}
  14.9320894720063, 6.096, 2.4384;        !- X,Y,Z Vertex 4 {m}

OS:Surface,
  {7393b1e9-a82c-437a-8438-82d0597d96af}, !- Handle
  Surface 12,                             !- Name
  Wall,                                   !- Surface Type
  ,                                       !- Construction Name
  {233fc3a1-9172-4300-ad58-b71804d7840e}, !- Space Name
  Surface,                                !- Outside Boundary Condition
  {0721b2eb-43f4-45df-a8ef-bf728c9d4dad}, !- Outside Boundary Condition Object
  NoSun,                                  !- Sun Exposure
  NoWind,                                 !- Wind Exposure
  ,                                       !- View Factor to Ground
  ,                                       !- Number of Vertices
  8.83608947200625, 0, 2.4384,            !- X,Y,Z Vertex 1 {m}
  8.83608947200625, 0, 0,                 !- X,Y,Z Vertex 2 {m}
  8.83608947200625, 6.096, 0,             !- X,Y,Z Vertex 3 {m}
  8.83608947200625, 6.096, 2.4384;        !- X,Y,Z Vertex 4 {m}

OS:Surface,
  {8807c873-25c9-459b-bec6-9b5c325b614b}, !- Handle
  Surface 13,                             !- Name
  Wall,                                   !- Surface Type
  ,                                       !- Construction Name
  {233fc3a1-9172-4300-ad58-b71804d7840e}, !- Space Name
  Outdoors,                               !- Outside Boundary Condition
  ,                                       !- Outside Boundary Condition Object
  SunExposed,                             !- Sun Exposure
  WindExposed,                            !- Wind Exposure
  ,                                       !- View Factor to Ground
  ,                                       !- Number of Vertices
  0, 0, 2.4384,                           !- X,Y,Z Vertex 1 {m}
  0, 0, 0,                                !- X,Y,Z Vertex 2 {m}
  8.83608947200625, 0, 0,                 !- X,Y,Z Vertex 3 {m}
  8.83608947200625, 0, 2.4384;            !- X,Y,Z Vertex 4 {m}

OS:Surface,
  {887d9901-300c-4eb9-9ca2-dd36877cf90f}, !- Handle
  Surface 14,                             !- Name
  RoofCeiling,                            !- Surface Type
  ,                                       !- Construction Name
  {233fc3a1-9172-4300-ad58-b71804d7840e}, !- Space Name
  Surface,                                !- Outside Boundary Condition
  {5d9ba9ec-858c-4156-964e-c8982c96f055}, !- Outside Boundary Condition Object
  NoSun,                                  !- Sun Exposure
  NoWind,                                 !- Wind Exposure
  ,                                       !- View Factor to Ground
  ,                                       !- Number of Vertices