!- NOTE: Auto-generated from /test/osw_files/SFA_4units_1story_SL_UA_3Beds_2Baths_Denver_Central_System_PTAC.osw

OS:Version,
  {86f450db-12ee-4e3b-a7e6-748b5afc93f1}, !- Handle
  2.5.1;                                  !- Version Identifier

OS:Building,
  {48b619ae-dd2e-44da-a068-3ba5c8a25d3e}, !- Handle
  Building 1,                             !- Name
  ,                                       !- Building Sector Type
  0,                                      !- North Axis {deg}
  ,                                       !- Nominal Floor to Floor Height {m}
  ,                                       !- Space Type Name
  ,                                       !- Default Construction Set Name
  ,                                       !- Default Schedule Set Name
  1,                                      !- Standards Number of Stories
  1,                                      !- Standards Number of Above Ground Stories
  singlefamilyattached,                   !- Standards Building Type
  4;                                      !- Standards Number of Living Units

OS:Facility,
  {85c3e5ab-4431-41f9-beee-183b4b849e9a}; !- Handle

OS:Site,
  {457e7038-9507-46c5-8d49-1df18a1aeddc}, !- Handle
  Denver Intl Ap_CO_USA,                  !- Name
  39.83,                                  !- Latitude {deg}
  -104.65,                                !- Longitude {deg}
  -7,                                     !- Time Zone {hr}
  1650,                                   !- Elevation {m}
  ;                                       !- Terrain

OS:SimulationControl,
  {1ab07b62-38c2-47d3-96d9-72cc6c12efc0}, !- Handle
  ,                                       !- Do Zone Sizing Calculation
  ,                                       !- Do System Sizing Calculation
  ,                                       !- Do Plant Sizing Calculation
  Yes;                                    !- Run Simulation for Sizing Periods

OS:Sizing:Parameters,
  {2e05e4b1-8382-452d-86de-e6ff391d1105}, !- Handle
  1.25,                                   !- Heating Sizing Factor
  1.15;                                   !- Cooling Sizing Factor

OS:Timestep,
  {32b6716b-70a1-4346-9369-15ba968e88cf}, !- Handle
  6;                                      !- Number of Timesteps per Hour

OS:ShadowCalculation,
  {ab83f33b-3c93-4751-bd05-125bf832e47e}, !- Handle
  20,                                     !- Calculation Frequency
  200;                                    !- Maximum Figures in Shadow Overlap Calculations

OS:HeatBalanceAlgorithm,
  {d2ee40f9-663f-4c52-b6e8-fd6422a3d165}, !- Handle
  ConductionTransferFunction,             !- Algorithm
  200;                                    !- Surface Temperature Upper Limit {C}

OS:RunPeriod,
  {62ff8df6-b4e1-4a95-b8c2-f64f250a34f7}, !- Handle
  Run Period 1,                           !- Name
  1,                                      !- Begin Month
  1,                                      !- Begin Day of Month
  12,                                     !- End Month
  31,                                     !- End Day of Month
  ,                                       !- Use Weather File Holidays and Special Days
  ,                                       !- Use Weather File Daylight Saving Period
  ,                                       !- Apply Weekend Holiday Rule
  ,                                       !- Use Weather File Rain Indicators
  ,                                       !- Use Weather File Snow Indicators
  ;                                       !- Number of Times Runperiod to be Repeated

OS:LifeCycleCost:Parameters,
  {80701201-a2bd-4aad-aef0-9165a961bc7c}, !- Handle
  ,                                       !- Analysis Type
  ,                                       !- Discounting Convention
  ,                                       !- Inflation Approach
  ,                                       !- Real Discount Rate
  ,                                       !- Nominal Discount Rate
  ,                                       !- Inflation
  ,                                       !- Base Date Month
  ,                                       !- Base Date Year
  ,                                       !- Service Date Month
  ,                                       !- Service Date Year
  ;                                       !- Length of Study Period in Years

OS:ThermalZone,
  {12439737-6d27-4e85-a0e6-34a96aed7d29}, !- Handle
  living zone,                            !- Name
  ,                                       !- Multiplier
  ,                                       !- Ceiling Height {m}
  ,                                       !- Volume {m3}
  ,                                       !- Floor Area {m2}
  ,                                       !- Zone Inside Convection Algorithm
  ,                                       !- Zone Outside Convection Algorithm
  ,                                       !- Zone Conditioning Equipment List Name
  {e7cdcf73-cdc9-4301-9b89-ba034e1fdbcd}, !- Zone Air Inlet Port List
  {52c663e4-9d62-443c-a172-742cb6049882}, !- Zone Air Exhaust Port List
  {a8e65a1f-232e-41dc-9e81-8458edb08c26}, !- Zone Air Node Name
  ,                                       !- Zone Return Air Node Name
  ,                                       !- Primary Daylighting Control Name
  ,                                       !- Fraction of Zone Controlled by Primary Daylighting Control
  ,                                       !- Secondary Daylighting Control Name
  ,                                       !- Fraction of Zone Controlled by Secondary Daylighting Control
  ,                                       !- Illuminance Map Name
  ,                                       !- Group Rendering Name
  {973c0ae1-e972-43d8-897c-f636a0d6f5b6}, !- Thermostat Name
  No;                                     !- Use Ideal Air Loads

OS:Node,
  {ded1d45b-b734-449d-a941-03f6559c5ed0}, !- Handle
  Node 1,                                 !- Name
  {a8e65a1f-232e-41dc-9e81-8458edb08c26}, !- Inlet Port
  ;                                       !- Outlet Port

OS:Connection,
  {a8e65a1f-232e-41dc-9e81-8458edb08c26}, !- Handle
  {f1926117-4778-4cf4-87ac-c58ef1c13333}, !- Name
  {12439737-6d27-4e85-a0e6-34a96aed7d29}, !- Source Object
  11,                                     !- Outlet Port
  {ded1d45b-b734-449d-a941-03f6559c5ed0}, !- Target Object
  2;                                      !- Inlet Port

OS:PortList,
  {e7cdcf73-cdc9-4301-9b89-ba034e1fdbcd}, !- Handle
  {43fa0b37-fc5a-4890-8fcb-3108c6453659}, !- Name
  {12439737-6d27-4e85-a0e6-34a96aed7d29}, !- HVAC Component
  {f8ba368b-a306-49f9-a08f-5997d558c00b}; !- Port 1

OS:PortList,
  {52c663e4-9d62-443c-a172-742cb6049882}, !- Handle
  {649798d5-3521-488a-a0ca-1367e130e5b7}, !- Name
  {12439737-6d27-4e85-a0e6-34a96aed7d29}, !- HVAC Component
  {53dff79b-0624-4c1d-a0fd-c558895f7782}; !- Port 1

OS:Sizing:Zone,
  {527e9827-4503-40bb-b975-fa98110574f8}, !- Handle
  {12439737-6d27-4e85-a0e6-34a96aed7d29}, !- Zone or ZoneList Name
  SupplyAirTemperature,                   !- Zone Cooling Design Supply Air Temperature Input Method
  14,                                     !- Zone Cooling Design Supply Air Temperature {C}
  11.11,                                  !- Zone Cooling Design Supply Air Temperature Difference {deltaC}
  SupplyAirTemperature,                   !- Zone Heating Design Supply Air Temperature Input Method
  50,                                     !- Zone Heating Design Supply Air Temperature {C}
  11.11,                                  !- Zone Heating Design Supply Air Temperature Difference {deltaC}
  0.008,                                  !- Zone Cooling Design Supply Air Humidity Ratio {kg-H2O/kg-air}
  0.008,                                  !- Zone Heating Design Supply Air Humidity Ratio {kg-H2O/kg-air}
  ,                                       !- Zone Heating Sizing Factor
  ,                                       !- Zone Cooling Sizing Factor
  DesignDay,                              !- Cooling Design Air Flow Method
  ,                                       !- Cooling Design Air Flow Rate {m3/s}
  ,                                       !- Cooling Minimum Air Flow per Zone Floor Area {m3/s-m2}
  ,                                       !- Cooling Minimum Air Flow {m3/s}
  ,                                       !- Cooling Minimum Air Flow Fraction
  DesignDay,                              !- Heating Design Air Flow Method
  ,                                       !- Heating Design Air Flow Rate {m3/s}
  ,                                       !- Heating Maximum Air Flow per Zone Floor Area {m3/s-m2}
  ,                                       !- Heating Maximum Air Flow {m3/s}
  ,                                       !- Heating Maximum Air Flow Fraction
  ,                                       !- Design Zone Air Distribution Effectiveness in Cooling Mode
  ,                                       !- Design Zone Air Distribution Effectiveness in Heating Mode
  No,                                     !- Account for Dedicated Outdoor Air System
  NeutralSupplyAir,                       !- Dedicated Outdoor Air System Control Strategy
  autosize,                               !- Dedicated Outdoor Air Low Setpoint Temperature for Design {C}
  autosize;                               !- Dedicated Outdoor Air High Setpoint Temperature for Design {C}

OS:ZoneHVAC:EquipmentList,
  {da31c929-e1d2-4307-9ddf-4fb9fae27783}, !- Handle
  Zone HVAC Equipment List 1,             !- Name
  {12439737-6d27-4e85-a0e6-34a96aed7d29}, !- Thermal Zone
  {52c5332c-1a31-430a-9c2a-25ea2990e7ae}, !- Zone Equipment 1
  1,                                      !- Zone Equipment Cooling Sequence 1
  1;                                      !- Zone Equipment Heating or No-Load Sequence 1

OS:Space,
  {28c2827f-3dbd-4fb3-b918-816191ffc559}, !- Handle
  living space,                           !- Name
  {416708fb-8fd2-4471-87f7-154cd8b51464}, !- Space Type Name
  ,                                       !- Default Construction Set Name
  ,                                       !- Default Schedule Set Name
  ,                                       !- Direction of Relative North {deg}
  ,                                       !- X Origin {m}
  ,                                       !- Y Origin {m}
  ,                                       !- Z Origin {m}
  ,                                       !- Building Story Name
  {12439737-6d27-4e85-a0e6-34a96aed7d29}, !- Thermal Zone Name
  ,                                       !- Part of Total Floor Area
  ,                                       !- Design Specification Outdoor Air Object Name
  {5224277c-a718-4eb6-a74e-d6a119bdafb1}; !- Building Unit Name

OS:Surface,
  {367622fe-6936-44d0-b76c-dba5014922a1}, !- Handle
  Surface 1,                              !- Name
  Floor,                                  !- Surface Type
  ,                                       !- Construction Name
  {28c2827f-3dbd-4fb3-b918-816191ffc559}, !- Space Name
  Foundation,                             !- Outside Boundary Condition
  ,                                       !- Outside Boundary Condition Object
  NoSun,                                  !- Sun Exposure
  NoWind,                                 !- Wind Exposure
  ,                                       !- View Factor to Ground
  ,                                       !- Number of Vertices
  0, -12.9315688143396, 0,                !- X,Y,Z Vertex 1 {m}
  0, 0, 0,                                !- X,Y,Z Vertex 2 {m}
  6.46578440716979, 0, 0,                 !- X,Y,Z Vertex 3 {m}
  6.46578440716979, -12.9315688143396, 0; !- X,Y,Z Vertex 4 {m}

OS:Surface,
  {7c46a2dc-2d39-4ed1-b467-137281e62082}, !- Handle
  Surface 2,                              !- Name
  Wall,                                   !- Surface Type
  ,                                       !- Construction Name
  {28c2827f-3dbd-4fb3-b918-816191ffc559}, !- Space Name
  Outdoors,                               !- Outside Boundary Condition
  ,                                       !- Outside Boundary Condition Object
  SunExposed,                             !- Sun Exposure
  WindExposed,                            !- Wind Exposure
  ,                                       !- View Factor to Ground
  ,                                       !- Number of Vertices
  0, 0, 2.4384,                           !- X,Y,Z Vertex 1 {m}
  0, 0, 0,                                !- X,Y,Z Vertex 2 {m}
  0, -12.9315688143396, 0,                !- X,Y,Z Vertex 3 {m}
  0, -12.9315688143396, 2.4384;           !- X,Y,Z Vertex 4 {m}

OS:Surface,
  {c0bbbbad-58ea-4418-8a0a-57f488cde8f8}, !- Handle
  Surface 3,                              !- Name
  Wall,                                   !- Surface Type
  ,                                       !- Construction Name
  {28c2827f-3dbd-4fb3-b918-816191ffc559}, !- Space Name
  Outdoors,                               !- Outside Boundary Condition
  ,                                       !- Outside Boundary Condition Object
  SunExposed,                             !- Sun Exposure
  WindExposed,                            !- Wind Exposure
  ,                                       !- View Factor to Ground
  ,                                       !- Number of Vertices
  6.46578440716979, 0, 2.4384,            !- X,Y,Z Vertex 1 {m}
  6.46578440716979, 0, 0,                 !- X,Y,Z Vertex 2 {m}
  0, 0, 0,                                !- X,Y,Z Vertex 3 {m}
  0, 0, 2.4384;                           !- X,Y,Z Vertex 4 {m}

OS:Surface,
  {005c0144-45a3-4406-ae73-a772f86d531c}, !- Handle
  Surface 4,                              !- Name
  Wall,                                   !- Surface Type
  ,                                       !- Construction Name
  {28c2827f-3dbd-4fb3-b918-816191ffc559}, !- Space Name
  Surface,                                !- Outside Boundary Condition
  {e1684798-3030-4c95-9d8a-0328c37f60ec}, !- Outside Boundary Condition Object
  NoSun,                                  !- Sun Exposure
  NoWind,                                 !- Wind Exposure
  ,                                       !- View Factor to Ground
  ,                                       !- Number of Vertices
  6.46578440716979, -12.9315688143396, 2.4384, !- X,Y,Z Vertex 1 {m}
  6.46578440716979, -12.9315688143396, 0, !- X,Y,Z Vertex 2 {m}
  6.46578440716979, 0, 0,                 !- X,Y,Z Vertex 3 {m}
  6.46578440716979, 0, 2.4384;            !- X,Y,Z Vertex 4 {m}

OS:Surface,
  {f13cfc2c-a164-4b0d-beb2-6501b6cfdb48}, !- Handle
  Surface 5,                              !- Name
  Wall,                                   !- Surface Type
  ,                                       !- Construction Name
  {28c2827f-3dbd-4fb3-b918-816191ffc559}, !- Space Name
  Outdoors,                               !- Outside Boundary Condition
  ,                                       !- Outside Boundary Condition Object
  SunExposed,                             !- Sun Exposure
  WindExposed,                            !- Wind Exposure
  ,                                       !- View Factor to Ground
  ,                                       !- Number of Vertices
  0, -12.9315688143396, 2.4384,           !- X,Y,Z Vertex 1 {m}
  0, -12.9315688143396, 0,                !- X,Y,Z Vertex 2 {m}
  6.46578440716979, -12.9315688143396, 0, !- X,Y,Z Vertex 3 {m}
  6.46578440716979, -12.9315688143396, 2.4384; !- X,Y,Z Vertex 4 {m}

OS:Surface,
  {3bf455d6-bb21-4d80-8fad-31834b7ab186}, !- Handle
  Surface 6,                              !- Name
  RoofCeiling,                            !- Surface Type
  ,                                       !- Construction Name
  {28c2827f-3dbd-4fb3-b918-816191ffc559}, !- Space Name
  Surface,                                !- Outside Boundary Condition
  {578c94b0-1bee-4e3c-9a13-9210260ab63a}, !- Outside Boundary Condition Object
  NoSun,                                  !- Sun Exposure
  NoWind,                                 !- Wind Exposure
  ,                                       !- View Factor to Ground
  ,                                       !- Number of Vertices
  6.46578440716979, -12.9315688143396, 2.4384, !- X,Y,Z Vertex 1 {m}
  6.46578440716979, 0, 2.4384,            !- X,Y,Z Vertex 2 {m}
  0, 0, 2.4384,                           !- X,Y,Z Vertex 3 {m}
  0, -12.9315688143396, 2.4384;           !- X,Y,Z Vertex 4 {m}

OS:SpaceType,
  {416708fb-8fd2-4471-87f7-154cd8b51464}, !- Handle
  Space Type 1,                           !- Name
  ,                                       !- Default Construction Set Name
  ,                                       !- Default Schedule Set Name
  ,                                       !- Group Rendering Name
  ,                                       !- Design Specification Outdoor Air Object Name
  ,                                       !- Standards Building Type
  living;                                 !- Standards Space Type

OS:ThermalZone,
  {c808ea3d-1ab3-42b7-8ddb-cea29c09b0a4}, !- Handle
  living zone|unit 2,                     !- Name
  ,                                       !- Multiplier
  ,                                       !- Ceiling Height {m}
  ,                                       !- Volume {m3}
  ,                                       !- Floor Area {m2}
  ,                                       !- Zone Inside Convection Algorithm
  ,                                       !- Zone Outside Convection Algorithm
  ,                                       !- Zone Conditioning Equipment List Name
  {0d2dbabf-b994-424f-bb6c-b890910dd3ee}, !- Zone Air Inlet Port List
  {a2d24439-0655-4a7d-95bd-c4e77fb1d769}, !- Zone Air Exhaust Port List
  {59aeabcc-2109-483e-9b56-63062ff23227}, !- Zone Air Node Name
  ,                                       !- Zone Return Air Node Name
  ,                                       !- Primary Daylighting Control Name
  ,                                       !- Fraction of Zone Controlled by Primary Daylighting Control
  ,                                       !- Secondary Daylighting Control Name
  ,                                       !- Fraction of Zone Controlled by Secondary Daylighting Control
  ,                                       !- Illuminance Map Name
  ,                                       !- Group Rendering Name
  {ab8cf59d-6a4a-4e01-83b6-de917cbf920d}, !- Thermostat Name
  No;                                     !- Use Ideal Air Loads

OS:Node,
  {cdee4385-4dce-4e77-9c44-68f2407ae40a}, !- Handle
  Node 2,                                 !- Name
  {59aeabcc-2109-483e-9b56-63062ff23227}, !- Inlet Port
  ;                                       !- Outlet Port

OS:Connection,
  {59aeabcc-2109-483e-9b56-63062ff23227}, !- Handle
  {28b0ef36-fc96-4367-9315-c771d48ae406}, !- Name
  {c808ea3d-1ab3-42b7-8ddb-cea29c09b0a4}, !- Source Object
  11,                                     !- Outlet Port
  {cdee4385-4dce-4e77-9c44-68f2407ae40a}, !- Target Object
  2;                                      !- Inlet Port

OS:PortList,
  {0d2dbabf-b994-424f-bb6c-b890910dd3ee}, !- Handle
  {d71f7b98-3d82-42af-b452-6a02e521190d}, !- Name
  {c808ea3d-1ab3-42b7-8ddb-cea29c09b0a4}, !- HVAC Component
  {51128361-76d6-451c-9fa4-1557aa089a9d}; !- Port 1

OS:PortList,
  {a2d24439-0655-4a7d-95bd-c4e77fb1d769}, !- Handle
  {5b9af468-f332-43b9-9b04-f92310d7b654}, !- Name
  {c808ea3d-1ab3-42b7-8ddb-cea29c09b0a4}, !- HVAC Component
  {246bd40f-f1f6-4280-afc8-f1308448a3a0}; !- Port 1

OS:Sizing:Zone,
  {93637d35-e884-4d6d-9290-209951980a87}, !- Handle
  {c808ea3d-1ab3-42b7-8ddb-cea29c09b0a4}, !- Zone or ZoneList Name
  SupplyAirTemperature,                   !- Zone Cooling Design Supply Air Temperature Input Method
  14,                                     !- Zone Cooling Design Supply Air Temperature {C}
  11.11,                                  !- Zone Cooling Design Supply Air Temperature Difference {deltaC}
  SupplyAirTemperature,                   !- Zone Heating Design Supply Air Temperature Input Method
  50,                                     !- Zone Heating Design Supply Air Temperature {C}
  11.11,                                  !- Zone Heating Design Supply Air Temperature Difference {deltaC}
  0.008,                                  !- Zone Cooling Design Supply Air Humidity Ratio {kg-H2O/kg-air}
  0.008,                                  !- Zone Heating Design Supply Air Humidity Ratio {kg-H2O/kg-air}
  ,                                       !- Zone Heating Sizing Factor
  ,                                       !- Zone Cooling Sizing Factor
  DesignDay,                              !- Cooling Design Air Flow Method
  ,                                       !- Cooling Design Air Flow Rate {m3/s}
  ,                                       !- Cooling Minimum Air Flow per Zone Floor Area {m3/s-m2}
  ,                                       !- Cooling Minimum Air Flow {m3/s}
  ,                                       !- Cooling Minimum Air Flow Fraction
  DesignDay,                              !- Heating Design Air Flow Method
  ,                                       !- Heating Design Air Flow Rate {m3/s}
  ,                                       !- Heating Maximum Air Flow per Zone Floor Area {m3/s-m2}
  ,                                       !- Heating Maximum Air Flow {m3/s}
  ,                                       !- Heating Maximum Air Flow Fraction
  ,                                       !- Design Zone Air Distribution Effectiveness in Cooling Mode
  ,                                       !- Design Zone Air Distribution Effectiveness in Heating Mode
  No,                                     !- Account for Dedicated Outdoor Air System
  NeutralSupplyAir,                       !- Dedicated Outdoor Air System Control Strategy
  autosize,                               !- Dedicated Outdoor Air Low Setpoint Temperature for Design {C}
  autosize;                               !- Dedicated Outdoor Air High Setpoint Temperature for Design {C}

OS:ZoneHVAC:EquipmentList,
  {343c38b3-ef1b-4611-ba45-56f3af8c58ec}, !- Handle
  Zone HVAC Equipment List 2,             !- Name
  {c808ea3d-1ab3-42b7-8ddb-cea29c09b0a4}, !- Thermal Zone
  {900ba180-9259-4a28-af1d-bb031a202a97}, !- Zone Equipment 1
  1,                                      !- Zone Equipment Cooling Sequence 1
  1;                                      !- Zone Equipment Heating or No-Load Sequence 1

OS:Space,
  {8e8f13cf-5307-44f1-9fa3-5468b6aceedd}, !- Handle
  living space|unit 2|story 1,            !- Name
  {416708fb-8fd2-4471-87f7-154cd8b51464}, !- Space Type Name
  ,                                       !- Default Construction Set Name
  ,                                       !- Default Schedule Set Name
  -0,                                     !- Direction of Relative North {deg}
  0,                                      !- X Origin {m}
  0,                                      !- Y Origin {m}
  0,                                      !- Z Origin {m}
  ,                                       !- Building Story Name
  {c808ea3d-1ab3-42b7-8ddb-cea29c09b0a4}, !- Thermal Zone Name
  ,                                       !- Part of Total Floor Area
  ,                                       !- Design Specification Outdoor Air Object Name
  {edec7dfb-f4de-4abe-872c-54d0ccf521d5}; !- Building Unit Name

OS:Surface,
  {69f4e5bb-4752-467e-acb4-b7f484c00f72}, !- Handle
  Surface 12,                             !- Name
  RoofCeiling,                            !- Surface Type
  ,                                       !- Construction Name
  {8e8f13cf-5307-44f1-9fa3-5468b6aceedd}, !- Space Name
  Surface,                                !- Outside Boundary Condition
  {828aa409-a44c-4b70-a037-f41e4ec933b7}, !- Outside Boundary Condition Object
  NoSun,                                  !- Sun Exposure
  NoWind,                                 !- Wind Exposure
  ,                                       !- View Factor to Ground
  ,                                       !- Number of Vertices
  12.9315688143396, -12.9315688143396, 2.4384, !- X,Y,Z Vertex 1 {m}
  12.9315688143396, 0, 2.4384,            !- X,Y,Z Vertex 2 {m}
  6.46578440716979, 0, 2.4384,            !- X,Y,Z Vertex 3 {m}
  6.46578440716979, -12.9315688143396, 2.4384; !- X,Y,Z Vertex 4 {m}

OS:Surface,
  {a9f3bc8e-9cff-4e66-907f-e969a026ebfb}, !- Handle
  Surface 13,                             !- Name
  Wall,                                   !- Surface Type
  ,                                       !- Construction Name
  {8e8f13cf-5307-44f1-9fa3-5468b6aceedd}, !- Space Name
  Outdoors,                               !- Outside Boundary Condition
  ,                                       !- Outside Boundary Condition Object
  SunExposed,                             !- Sun Exposure
  WindExposed,                            !- Wind Exposure
  ,                                       !- View Factor to Ground
  ,                                       !- Number of Vertices
  12.9315688143396, 0, 2.4384,            !- X,Y,Z Vertex 1 {m}
  12.9315688143396, 0, 0,                 !- X,Y,Z Vertex 2 {m}
  6.46578440716979, 0, 0,                 !- X,Y,Z Vertex 3 {m}
  6.46578440716979, 0, 2.4384;            !- X,Y,Z Vertex 4 {m}

OS:Surface,
  {68b780f5-ef56-4a63-b9f6-ca91b4a573c1}, !- Handle
  Surface 14,                             !- Name
  Wall,                                   !- Surface Type
  ,                                       !- Construction Name
  {8e8f13cf-5307-44f1-9fa3-5468b6aceedd}, !- Space Name
  Surface,                                !- Outside Boundary Condition
  {131a6598-f5ff-4d96-b2f4-8b4c9a00aad5}, !- Outside Boundary Condition Object
  NoSun,                                  !- Sun Exposure
  NoWind,                                 !- Wind Exposure
  ,                                       !- View Factor to Ground
  ,                                       !- Number of Vertices
  12.9315688143396, -12.9315688143396, 2.4384, !- X,Y,Z Vertex 1 {m}
  12.9315688143396, -12.9315688143396, 0, !- X,Y,Z Vertex 2 {m}
  12.9315688143396, 0, 0,                 !- X,Y,Z Vertex 3 {m}
  12.9315688143396, 0, 2.4384;            !- X,Y,Z Vertex 4 {m}

OS:Surface,
  {e417c623-ceea-4914-8543-79280f1c07aa}, !- Handle
  Surface 15,                             !- Name
  Floor,                                  !- Surface Type
  ,                                       !- Construction Name
  {8e8f13cf-5307-44f1-9fa3-5468b6aceedd}, !- Space Name
  Foundation,                             !- Outside Boundary Condition
  ,                                       !- Outside Boundary Condition Object
  NoSun,                                  !- Sun Exposure
  NoWind,                                 !- Wind Exposure
  ,                                       !- View Factor to Ground
  ,                                       !- Number of Vertices
  6.46578440716979, -12.9315688143396, 0, !- X,Y,Z Vertex 1 {m}
  6.46578440716979, 0, 0,                 !- X,Y,Z Vertex 2 {m}
  12.9315688143396, 0, 0,                 !- X,Y,Z Vertex 3 {m}
  12.9315688143396, -12.9315688143396, 0; !- X,Y,Z Vertex 4 {m}

OS:Surface,
  {e1684798-3030-4c95-9d8a-0328c37f60ec}, !- Handle
  Surface 16,                             !- Name
  Wall,                                   !- Surface Type
  ,                                       !- Construction Name
  {8e8f13cf-5307-44f1-9fa3-5468b6aceedd}, !- Space Name
  Surface,                                !- Outside Boundary Condition
  {005c0144-45a3-4406-ae73-a772f86d531c}, !- Outside Boundary Condition Object
  NoSun,                                  !- Sun Exposure
  NoWind,                                 !- Wind Exposure
  ,                                       !- View Factor to Ground
  ,                                       !- Number of Vertices
  6.46578440716979, 0, 2.4384,            !- X,Y,Z Vertex 1 {m}
  6.46578440716979, 0, 0,                 !- X,Y,Z Vertex 2 {m}
  6.46578440716979, -12.9315688143396, 0, !- X,Y,Z Vertex 3 {m}
  6.46578440716979, -12.9315688143396, 2.4384; !- X,Y,Z Vertex 4 {m}

OS:Surface,
  {cfb61375-57fb-4019-8503-b7a91ce72f0a}, !- Handle
  Surface 17,                             !- Name
  Wall,                                   !- Surface Type
  ,                                       !- Construction Name
  {8e8f13cf-5307-44f1-9fa3-5468b6aceedd}, !- Space Name
  Outdoors,                               !- Outside Boundary Condition
  ,                                       !- Outside Boundary Condition Object
  SunExposed,                             !- Sun Exposure
  WindExposed,                            !- Wind Exposure
  ,                                       !- View Factor to Ground
  ,                                       !- Number of Vertices
  6.46578440716979, -12.9315688143396, 2.4384, !- X,Y,Z Vertex 1 {m}
  6.46578440716979, -12.9315688143396, 0, !- X,Y,Z Vertex 2 {m}
  12.9315688143396, -12.9315688143396, 0, !- X,Y,Z Vertex 3 {m}
  12.9315688143396, -12.9315688143396, 2.4384; !- X,Y,Z Vertex 4 {m}

OS:ThermalZone,
  {f84d7d11-3ac1-4623-a240-a124e54f4782}, !- Handle
  living zone|unit 3,                     !- Name
  ,                                       !- Multiplier
  ,                                       !- Ceiling Height {m}
  ,                                       !- Volume {m3}
  ,                                       !- Floor Area {m2}
  ,                                       !- Zone Inside Convection Algorithm
  ,                                       !- Zone Outside Convection Algorithm
  ,                                       !- Zone Conditioning Equipment List Name
  {7a515fde-dd88-4bdc-9137-7ef598b9f7ed}, !- Zone Air Inlet Port List
  {03e534ff-e946-425f-b539-29332eadaa9b}, !- Zone Air Exhaust Port List
  {7e1e432b-ef2b-491e-88cd-699a4b6b0f7f}, !- Zone Air Node Name
  ,                                       !- Zone Return Air Node Name