!- NOTE: Auto-generated from /test/osw_files/SFA_4units_1story_FB_UA_3Beds_2Baths_Denver_WHTank_ClothesWasher.osw

OS:Version,
  {73459863-d15a-421f-bdcb-ca1d31457739}, !- Handle
  2.6.2;                                  !- Version Identifier

OS:Building,
  {2b42e87e-e894-43d0-94b0-85380c2bd565}, !- Handle
  Building 1,                             !- Name
  ,                                       !- Building Sector Type
  0,                                      !- North Axis {deg}
  ,                                       !- Nominal Floor to Floor Height {m}
  ,                                       !- Space Type Name
  ,                                       !- Default Construction Set Name
  ,                                       !- Default Schedule Set Name
  2,                                      !- Standards Number of Stories
  1,                                      !- Standards Number of Above Ground Stories
  singlefamilyattached,                   !- Standards Building Type
  4;                                      !- Standards Number of Living Units

OS:Facility,
  {b2eff60a-e0ed-4e16-909e-8bd7ecedd8a6}; !- Handle

OS:Site,
  {0e78fecc-6a10-47b0-9a32-7cf7f8f447ff}, !- Handle
  Denver Intl Ap_CO_USA,                  !- Name
  39.83,                                  !- Latitude {deg}
  -104.65,                                !- Longitude {deg}
  -7,                                     !- Time Zone {hr}
  1650,                                   !- Elevation {m}
  ;                                       !- Terrain

OS:SimulationControl,
  {88032982-eb10-4e6d-9522-2cea15738546}, !- Handle
  ,                                       !- Do Zone Sizing Calculation
  ,                                       !- Do System Sizing Calculation
  ,                                       !- Do Plant Sizing Calculation
  No;                                     !- Run Simulation for Sizing Periods

OS:Sizing:Parameters,
  {6f116628-56b5-41a0-b2c7-11d71579579e}, !- Handle
  1.25,                                   !- Heating Sizing Factor
  1.15;                                   !- Cooling Sizing Factor

OS:Timestep,
  {1df167cc-c231-4393-85ac-a028ec03b880}, !- Handle
  6;                                      !- Number of Timesteps per Hour

OS:ShadowCalculation,
  {4caa271f-5e1f-4fc5-85b1-8040a7ec3464}, !- Handle
  20,                                     !- Calculation Frequency
  200;                                    !- Maximum Figures in Shadow Overlap Calculations

OS:HeatBalanceAlgorithm,
  {0ea3693b-dfcd-42b7-9f8f-e5df9d3efddf}, !- Handle
  ConductionTransferFunction,             !- Algorithm
  200;                                    !- Surface Temperature Upper Limit {C}

OS:RunPeriod,
  {9b26bde4-302e-4cdf-9f55-4b3a91470b5d}, !- Handle
  Run Period 1,                           !- Name
  1,                                      !- Begin Month
  1,                                      !- Begin Day of Month
  12,                                     !- End Month
  31,                                     !- End Day of Month
  ,                                       !- Use Weather File Holidays and Special Days
  ,                                       !- Use Weather File Daylight Saving Period
  ,                                       !- Apply Weekend Holiday Rule
  ,                                       !- Use Weather File Rain Indicators
  ,                                       !- Use Weather File Snow Indicators
  ;                                       !- Number of Times Runperiod to be Repeated

OS:LifeCycleCost:Parameters,
  {bc538e13-2f1d-4e47-bae4-ac86375178fc}, !- Handle
  ,                                       !- Analysis Type
  ,                                       !- Discounting Convention
  ,                                       !- Inflation Approach
  ,                                       !- Real Discount Rate
  ,                                       !- Nominal Discount Rate
  ,                                       !- Inflation
  ,                                       !- Base Date Month
  ,                                       !- Base Date Year
  ,                                       !- Service Date Month
  ,                                       !- Service Date Year
  ;                                       !- Length of Study Period in Years

OS:ThermalZone,
  {cbea04a0-2f67-42e6-9344-09dd368da2d0}, !- Handle
  living zone,                            !- Name
  ,                                       !- Multiplier
  ,                                       !- Ceiling Height {m}
  ,                                       !- Volume {m3}
  ,                                       !- Floor Area {m2}
  ,                                       !- Zone Inside Convection Algorithm
  ,                                       !- Zone Outside Convection Algorithm
  ,                                       !- Zone Conditioning Equipment List Name
  {a7413d0a-f089-45f0-aa22-726bf7a09444}, !- Zone Air Inlet Port List
  {997e878f-03e8-4426-9a05-343fd1c0d475}, !- Zone Air Exhaust Port List
  {fdee1d49-098c-4101-89f1-588fa242ade0}, !- Zone Air Node Name
  {2722b6e6-b0b3-4eaa-bad9-525800b08fb9}, !- Zone Return Air Port List
  ,                                       !- Primary Daylighting Control Name
  ,                                       !- Fraction of Zone Controlled by Primary Daylighting Control
  ,                                       !- Secondary Daylighting Control Name
  ,                                       !- Fraction of Zone Controlled by Secondary Daylighting Control
  ,                                       !- Illuminance Map Name
  ,                                       !- Group Rendering Name
  ,                                       !- Thermostat Name
  No;                                     !- Use Ideal Air Loads

OS:Node,
  {0c8f3e5d-fdaa-47d3-8ad4-dd570b7edc37}, !- Handle
  Node 1,                                 !- Name
  {fdee1d49-098c-4101-89f1-588fa242ade0}, !- Inlet Port
  ;                                       !- Outlet Port

OS:Connection,
  {fdee1d49-098c-4101-89f1-588fa242ade0}, !- Handle
  {54180575-72be-48d1-90a2-fb4ab87c0f55}, !- Name
  {cbea04a0-2f67-42e6-9344-09dd368da2d0}, !- Source Object
  11,                                     !- Outlet Port
  {0c8f3e5d-fdaa-47d3-8ad4-dd570b7edc37}, !- Target Object
  2;                                      !- Inlet Port

OS:PortList,
  {a7413d0a-f089-45f0-aa22-726bf7a09444}, !- Handle
  {738be091-15fa-4231-abdc-5cb41d676901}, !- Name
  {cbea04a0-2f67-42e6-9344-09dd368da2d0}; !- HVAC Component

OS:PortList,
  {997e878f-03e8-4426-9a05-343fd1c0d475}, !- Handle
  {674b1e80-74d2-4bd9-b78c-b92fc40a26f7}, !- Name
  {cbea04a0-2f67-42e6-9344-09dd368da2d0}; !- HVAC Component

OS:PortList,
  {2722b6e6-b0b3-4eaa-bad9-525800b08fb9}, !- Handle
  {9c72a2a6-99e5-4067-8e3f-0edd71c9ae4b}, !- Name
  {cbea04a0-2f67-42e6-9344-09dd368da2d0}; !- HVAC Component

OS:Sizing:Zone,
  {9be94a0a-137e-4931-a739-f7aca3cfeb0a}, !- Handle
  {cbea04a0-2f67-42e6-9344-09dd368da2d0}, !- Zone or ZoneList Name
  SupplyAirTemperature,                   !- Zone Cooling Design Supply Air Temperature Input Method
  14,                                     !- Zone Cooling Design Supply Air Temperature {C}
  11.11,                                  !- Zone Cooling Design Supply Air Temperature Difference {deltaC}
  SupplyAirTemperature,                   !- Zone Heating Design Supply Air Temperature Input Method
  40,                                     !- Zone Heating Design Supply Air Temperature {C}
  11.11,                                  !- Zone Heating Design Supply Air Temperature Difference {deltaC}
  0.0085,                                 !- Zone Cooling Design Supply Air Humidity Ratio {kg-H2O/kg-air}
  0.008,                                  !- Zone Heating Design Supply Air Humidity Ratio {kg-H2O/kg-air}
  ,                                       !- Zone Heating Sizing Factor
  ,                                       !- Zone Cooling Sizing Factor
  DesignDay,                              !- Cooling Design Air Flow Method
  ,                                       !- Cooling Design Air Flow Rate {m3/s}
  ,                                       !- Cooling Minimum Air Flow per Zone Floor Area {m3/s-m2}
  ,                                       !- Cooling Minimum Air Flow {m3/s}
  ,                                       !- Cooling Minimum Air Flow Fraction
  DesignDay,                              !- Heating Design Air Flow Method
  ,                                       !- Heating Design Air Flow Rate {m3/s}
  ,                                       !- Heating Maximum Air Flow per Zone Floor Area {m3/s-m2}
  ,                                       !- Heating Maximum Air Flow {m3/s}
  ,                                       !- Heating Maximum Air Flow Fraction
  ,                                       !- Design Zone Air Distribution Effectiveness in Cooling Mode
  ,                                       !- Design Zone Air Distribution Effectiveness in Heating Mode
  No,                                     !- Account for Dedicated Outdoor Air System
  NeutralSupplyAir,                       !- Dedicated Outdoor Air System Control Strategy
  autosize,                               !- Dedicated Outdoor Air Low Setpoint Temperature for Design {C}
  autosize;                               !- Dedicated Outdoor Air High Setpoint Temperature for Design {C}

OS:ZoneHVAC:EquipmentList,
  {efe086e6-b80a-41d3-9da1-db1336b730ca}, !- Handle
  Zone HVAC Equipment List 1,             !- Name
  {cbea04a0-2f67-42e6-9344-09dd368da2d0}; !- Thermal Zone

OS:Space,
  {539cfcc8-29f4-4529-8ba9-b789191778eb}, !- Handle
  living space,                           !- Name
  {14d886b6-f519-4885-8702-0947d8d7ddb8}, !- Space Type Name
  ,                                       !- Default Construction Set Name
  ,                                       !- Default Schedule Set Name
  ,                                       !- Direction of Relative North {deg}
  ,                                       !- X Origin {m}
  ,                                       !- Y Origin {m}
  ,                                       !- Z Origin {m}
  ,                                       !- Building Story Name
  {cbea04a0-2f67-42e6-9344-09dd368da2d0}, !- Thermal Zone Name
  ,                                       !- Part of Total Floor Area
  ,                                       !- Design Specification Outdoor Air Object Name
  {5165bd1a-380b-46b0-b5e5-ef29a072a85f}; !- Building Unit Name

OS:Surface,
  {d00a499f-a4d6-4a95-8832-89fc5d136bad}, !- Handle
  Surface 1,                              !- Name
  Floor,                                  !- Surface Type
  ,                                       !- Construction Name
  {539cfcc8-29f4-4529-8ba9-b789191778eb}, !- Space Name
  Surface,                                !- Outside Boundary Condition
  {7041c039-fb6e-446b-afba-7b9b7c2767f1}, !- Outside Boundary Condition Object
  NoSun,                                  !- Sun Exposure
  NoWind,                                 !- Wind Exposure
  ,                                       !- View Factor to Ground
  ,                                       !- Number of Vertices
  0, -9.144, 0,                           !- X,Y,Z Vertex 1 {m}
  0, 0, 0,                                !- X,Y,Z Vertex 2 {m}
  4.572, 0, 0,                            !- X,Y,Z Vertex 3 {m}
  4.572, -9.144, 0;                       !- X,Y,Z Vertex 4 {m}

OS:Surface,
  {fb1321ae-368a-4bd4-9bba-fc6e943de523}, !- Handle
  Surface 2,                              !- Name
  Wall,                                   !- Surface Type
  ,                                       !- Construction Name
  {539cfcc8-29f4-4529-8ba9-b789191778eb}, !- Space Name
  Outdoors,                               !- Outside Boundary Condition
  ,                                       !- Outside Boundary Condition Object
  SunExposed,                             !- Sun Exposure
  WindExposed,                            !- Wind Exposure
  ,                                       !- View Factor to Ground
  ,                                       !- Number of Vertices
  0, 0, 2.4384,                           !- X,Y,Z Vertex 1 {m}
  0, 0, 0,                                !- X,Y,Z Vertex 2 {m}
  0, -9.144, 0,                           !- X,Y,Z Vertex 3 {m}
  0, -9.144, 2.4384;                      !- X,Y,Z Vertex 4 {m}

OS:Surface,
  {6d55ce36-0cf4-4958-a4ab-ba0867224863}, !- Handle
  Surface 3,                              !- Name
  Wall,                                   !- Surface Type
  ,                                       !- Construction Name
  {539cfcc8-29f4-4529-8ba9-b789191778eb}, !- Space Name
  Outdoors,                               !- Outside Boundary Condition
  ,                                       !- Outside Boundary Condition Object
  SunExposed,                             !- Sun Exposure
  WindExposed,                            !- Wind Exposure
  ,                                       !- View Factor to Ground
  ,                                       !- Number of Vertices
  4.572, 0, 2.4384,                       !- X,Y,Z Vertex 1 {m}
  4.572, 0, 0,                            !- X,Y,Z Vertex 2 {m}
  0, 0, 0,                                !- X,Y,Z Vertex 3 {m}
  0, 0, 2.4384;                           !- X,Y,Z Vertex 4 {m}

OS:Surface,
  {89dacda3-0ca4-44d9-a45e-b173e6616d61}, !- Handle
  Surface 4,                              !- Name
  Wall,                                   !- Surface Type
  ,                                       !- Construction Name
  {539cfcc8-29f4-4529-8ba9-b789191778eb}, !- Space Name
  Surface,                                !- Outside Boundary Condition
  {8cf9b264-64c6-4ef8-8077-5d581f02819e}, !- Outside Boundary Condition Object
  NoSun,                                  !- Sun Exposure
  NoWind,                                 !- Wind Exposure
  ,                                       !- View Factor to Ground
  ,                                       !- Number of Vertices
  4.572, -9.144, 2.4384,                  !- X,Y,Z Vertex 1 {m}
  4.572, -9.144, 0,                       !- X,Y,Z Vertex 2 {m}
  4.572, 0, 0,                            !- X,Y,Z Vertex 3 {m}
  4.572, 0, 2.4384;                       !- X,Y,Z Vertex 4 {m}

OS:Surface,
  {ed8782f7-d447-4e4e-83e4-707e932b2956}, !- Handle
  Surface 5,                              !- Name
  Wall,                                   !- Surface Type
  ,                                       !- Construction Name
  {539cfcc8-29f4-4529-8ba9-b789191778eb}, !- Space Name
  Outdoors,                               !- Outside Boundary Condition
  ,                                       !- Outside Boundary Condition Object
  SunExposed,                             !- Sun Exposure
  WindExposed,                            !- Wind Exposure
  ,                                       !- View Factor to Ground
  ,                                       !- Number of Vertices
  0, -9.144, 2.4384,                      !- X,Y,Z Vertex 1 {m}
  0, -9.144, 0,                           !- X,Y,Z Vertex 2 {m}
  4.572, -9.144, 0,                       !- X,Y,Z Vertex 3 {m}
  4.572, -9.144, 2.4384;                  !- X,Y,Z Vertex 4 {m}

OS:Surface,
  {f423b036-6606-4a3a-9fe3-e6aab77bf4db}, !- Handle
  Surface 6,                              !- Name
  RoofCeiling,                            !- Surface Type
  ,                                       !- Construction Name
  {539cfcc8-29f4-4529-8ba9-b789191778eb}, !- Space Name
  Surface,                                !- Outside Boundary Condition
  {c3d7b6e7-3e9e-48de-bff1-08e4d107aee6}, !- Outside Boundary Condition Object
  NoSun,                                  !- Sun Exposure
  NoWind,                                 !- Wind Exposure
  ,                                       !- View Factor to Ground
  ,                                       !- Number of Vertices
  4.572, -9.144, 2.4384,                  !- X,Y,Z Vertex 1 {m}
  4.572, 0, 2.4384,                       !- X,Y,Z Vertex 2 {m}
  0, 0, 2.4384,                           !- X,Y,Z Vertex 3 {m}
  0, -9.144, 2.4384;                      !- X,Y,Z Vertex 4 {m}

OS:SpaceType,
  {14d886b6-f519-4885-8702-0947d8d7ddb8}, !- Handle
  Space Type 1,                           !- Name
  ,                                       !- Default Construction Set Name
  ,                                       !- Default Schedule Set Name
  ,                                       !- Group Rendering Name
  ,                                       !- Design Specification Outdoor Air Object Name
  ,                                       !- Standards Building Type
  living;                                 !- Standards Space Type

OS:ThermalZone,
  {f49dca7d-2de4-4b6f-8f02-8fd0f89077ed}, !- Handle
  living zone|unit 2,                     !- Name
  ,                                       !- Multiplier
  ,                                       !- Ceiling Height {m}
  ,                                       !- Volume {m3}
  ,                                       !- Floor Area {m2}
  ,                                       !- Zone Inside Convection Algorithm
  ,                                       !- Zone Outside Convection Algorithm
  ,                                       !- Zone Conditioning Equipment List Name
  {10c3c0eb-e0b4-4520-becc-359fc5b09f12}, !- Zone Air Inlet Port List
  {43688ee7-908f-416c-9fb7-e561766074c7}, !- Zone Air Exhaust Port List
  {11f3735f-a8dc-4f74-8ac2-f8828526ead0}, !- Zone Air Node Name
  {74aca392-7af8-465d-9f37-4a663a547daf}, !- Zone Return Air Port List
  ,                                       !- Primary Daylighting Control Name
  ,                                       !- Fraction of Zone Controlled by Primary Daylighting Control
  ,                                       !- Secondary Daylighting Control Name
  ,                                       !- Fraction of Zone Controlled by Secondary Daylighting Control
  ,                                       !- Illuminance Map Name
  ,                                       !- Group Rendering Name
  ,                                       !- Thermostat Name
  No;                                     !- Use Ideal Air Loads

OS:Node,
  {f19f65e6-3638-4075-813d-373beee69ed6}, !- Handle
  Node 2,                                 !- Name
  {11f3735f-a8dc-4f74-8ac2-f8828526ead0}, !- Inlet Port
  ;                                       !- Outlet Port

OS:Connection,
  {11f3735f-a8dc-4f74-8ac2-f8828526ead0}, !- Handle
  {0bd580cd-ea0d-4231-a536-b0c1703b676c}, !- Name
  {f49dca7d-2de4-4b6f-8f02-8fd0f89077ed}, !- Source Object
  11,                                     !- Outlet Port
  {f19f65e6-3638-4075-813d-373beee69ed6}, !- Target Object
  2;                                      !- Inlet Port

OS:PortList,
  {10c3c0eb-e0b4-4520-becc-359fc5b09f12}, !- Handle
  {4c871c47-094d-40f7-8f36-937af54bdf32}, !- Name
  {f49dca7d-2de4-4b6f-8f02-8fd0f89077ed}; !- HVAC Component

OS:PortList,
  {43688ee7-908f-416c-9fb7-e561766074c7}, !- Handle
  {7ead4779-bab5-478b-ba43-130c4c5f8fe0}, !- Name
  {f49dca7d-2de4-4b6f-8f02-8fd0f89077ed}; !- HVAC Component

OS:PortList,
  {74aca392-7af8-465d-9f37-4a663a547daf}, !- Handle
  {b4c6cffc-5fa9-4404-8b22-d3d4143723c4}, !- Name
  {f49dca7d-2de4-4b6f-8f02-8fd0f89077ed}; !- HVAC Component

OS:Sizing:Zone,
  {88499b72-6957-4008-98af-e73173527a4c}, !- Handle
  {f49dca7d-2de4-4b6f-8f02-8fd0f89077ed}, !- Zone or ZoneList Name
  SupplyAirTemperature,                   !- Zone Cooling Design Supply Air Temperature Input Method
  14,                                     !- Zone Cooling Design Supply Air Temperature {C}
  11.11,                                  !- Zone Cooling Design Supply Air Temperature Difference {deltaC}
  SupplyAirTemperature,                   !- Zone Heating Design Supply Air Temperature Input Method
  40,                                     !- Zone Heating Design Supply Air Temperature {C}
  11.11,                                  !- Zone Heating Design Supply Air Temperature Difference {deltaC}
  0.0085,                                 !- Zone Cooling Design Supply Air Humidity Ratio {kg-H2O/kg-air}
  0.008,                                  !- Zone Heating Design Supply Air Humidity Ratio {kg-H2O/kg-air}
  ,                                       !- Zone Heating Sizing Factor
  ,                                       !- Zone Cooling Sizing Factor
  DesignDay,                              !- Cooling Design Air Flow Method
  ,                                       !- Cooling Design Air Flow Rate {m3/s}
  ,                                       !- Cooling Minimum Air Flow per Zone Floor Area {m3/s-m2}
  ,                                       !- Cooling Minimum Air Flow {m3/s}
  ,                                       !- Cooling Minimum Air Flow Fraction
  DesignDay,                              !- Heating Design Air Flow Method
  ,                                       !- Heating Design Air Flow Rate {m3/s}
  ,                                       !- Heating Maximum Air Flow per Zone Floor Area {m3/s-m2}
  ,                                       !- Heating Maximum Air Flow {m3/s}
  ,                                       !- Heating Maximum Air Flow Fraction
  ,                                       !- Design Zone Air Distribution Effectiveness in Cooling Mode
  ,                                       !- Design Zone Air Distribution Effectiveness in Heating Mode
  No,                                     !- Account for Dedicated Outdoor Air System
  NeutralSupplyAir,                       !- Dedicated Outdoor Air System Control Strategy
  autosize,                               !- Dedicated Outdoor Air Low Setpoint Temperature for Design {C}
  autosize;                               !- Dedicated Outdoor Air High Setpoint Temperature for Design {C}

OS:ZoneHVAC:EquipmentList,
  {c23df364-6707-4058-bd07-6c59a9adbde4}, !- Handle
  Zone HVAC Equipment List 2,             !- Name
  {f49dca7d-2de4-4b6f-8f02-8fd0f89077ed}; !- Thermal Zone

OS:Space,
  {b2b19c08-00e5-45aa-b2c1-d794b79804ac}, !- Handle
  living space|unit 2|story 1,            !- Name
  {14d886b6-f519-4885-8702-0947d8d7ddb8}, !- Space Type Name
  ,                                       !- Default Construction Set Name
  ,                                       !- Default Schedule Set Name
  -0,                                     !- Direction of Relative North {deg}
  0,                                      !- X Origin {m}
  0,                                      !- Y Origin {m}
  0,                                      !- Z Origin {m}
  ,                                       !- Building Story Name
  {f49dca7d-2de4-4b6f-8f02-8fd0f89077ed}, !- Thermal Zone Name
  ,                                       !- Part of Total Floor Area
  ,                                       !- Design Specification Outdoor Air Object Name
  {cd7e6075-4f94-46fa-9bb2-8f373ec86cb6}; !- Building Unit Name

OS:Surface,
  {680da9d4-9c0f-406b-8355-c5c758439728}, !- Handle
  Surface 12,                             !- Name
  Wall,                                   !- Surface Type
  ,                                       !- Construction Name
  {b2b19c08-00e5-45aa-b2c1-d794b79804ac}, !- Space Name
  Surface,                                !- Outside Boundary Condition
  {b3baec86-df35-43cc-90db-f97d6a8ad0b1}, !- Outside Boundary Condition Object
  NoSun,                                  !- Sun Exposure
  NoWind,                                 !- Wind Exposure
  ,                                       !- View Factor to Ground
  ,                                       !- Number of Vertices
  9.144, -9.144, 2.4384,                  !- X,Y,Z Vertex 1 {m}
  9.144, -9.144, 0,                       !- X,Y,Z Vertex 2 {m}
  9.144, 0, 0,                            !- X,Y,Z Vertex 3 {m}
  9.144, 0, 2.4384;                       !- X,Y,Z Vertex 4 {m}

OS:Surface,
  {8cf9b264-64c6-4ef8-8077-5d581f02819e}, !- Handle
  Surface 13,                             !- Name
  Wall,                                   !- Surface Type
  ,                                       !- Construction Name
  {b2b19c08-00e5-45aa-b2c1-d794b79804ac}, !- Space Name
  Surface,                                !- Outside Boundary Condition
  {89dacda3-0ca4-44d9-a45e-b173e6616d61}, !- Outside Boundary Condition Object
  NoSun,                                  !- Sun Exposure
  NoWind,                                 !- Wind Exposure
  ,                                       !- View Factor to Ground
  ,                                       !- Number of Vertices
  4.572, 0, 2.4384,                       !- X,Y,Z Vertex 1 {m}
  4.572, 0, 0,                            !- X,Y,Z Vertex 2 {m}
  4.572, -9.144, 0,                       !- X,Y,Z Vertex 3 {m}
  4.572, -9.144, 2.4384;                  !- X,Y,Z Vertex 4 {m}

OS:Surface,
  {825018f5-b109-446d-8b30-8c59c47d036b}, !- Handle
  Surface 14,                             !- Name
  Floor,                                  !- Surface Type
  ,                                       !- Construction Name
  {b2b19c08-00e5-45aa-b2c1-d794b79804ac}, !- Space Name
  Surface,                                !- Outside Boundary Condition
  {77477155-9f4c-4b3e-b4fb-d837b0de4c71}, !- Outside Boundary Condition Object
  NoSun,                                  !- Sun Exposure
  NoWind,                                 !- Wind Exposure
  ,                                       !- View Factor to Ground
  ,                                       !- Number of Vertices
  4.572, -9.144, 0,                       !- X,Y,Z Vertex 1 {m}
  4.572, 0, 0,                            !- X,Y,Z Vertex 2 {m}
  9.144, 0, 0,                            !- X,Y,Z Vertex 3 {m}
  9.144, -9.144, 0;                       !- X,Y,Z Vertex 4 {m}

OS:Surface,
  {c64896f6-3f56-44be-aa86-1d40caa01782}, !- Handle
  Surface 15,                             !- Name
  Wall,                                   !- Surface Type
  ,                                       !- Construction Name
  {b2b19c08-00e5-45aa-b2c1-d794b79804ac}, !- Space Name
  Outdoors,                               !- Outside Boundary Condition
  ,                                       !- Outside Boundary Condition Object
  SunExposed,                             !- Sun Exposure
  WindExposed,                            !- Wind Exposure
  ,                                       !- View Factor to Ground
  ,                                       !- Number of Vertices
  9.144, 0, 2.4384,                       !- X,Y,Z Vertex 1 {m}
  9.144, 0, 0,                            !- X,Y,Z Vertex 2 {m}
  4.572, 0, 0,                            !- X,Y,Z Vertex 3 {m}
  4.572, 0, 2.4384;                       !- X,Y,Z Vertex 4 {m}

OS:Surface,
  {51fb100f-0f0c-46af-bc38-357e501a4396}, !- Handle
  Surface 16,                             !- Name
  Wall,                                   !- Surface Type
  ,                                       !- Construction Name
  {b2b19c08-00e5-45aa-b2c1-d794b79804ac}, !- Space Name
  Outdoors,                               !- Outside Boundary Condition
  ,                                       !- Outside Boundary Condition Object
  SunExposed,                             !- Sun Exposure
  WindExposed,                            !- Wind Exposure
  ,                                       !- View Factor to Ground
  ,                                       !- Number of Vertices
  4.572, -9.144, 2.4384,                  !- X,Y,Z Vertex 1 {m}
  4.572, -9.144, 0,                       !- X,Y,Z Vertex 2 {m}
  9.144, -9.144, 0,                       !- X,Y,Z Vertex 3 {m}
  9.144, -9.144, 2.4384;                  !- X,Y,Z Vertex 4 {m}

OS:Surface,
  {f895df65-c63a-40ad-94c0-23118b26c46c}, !- Handle
  Surface 17,                             !- Name
  RoofCeiling,                            !- Surface Type
  ,                                       !- Construction Name
  {b2b19c08-00e5-45aa-b2c1-d794b79804ac}, !- Space Name
  Surface,                                !- Outside Boundary Condition
  {a25cfa67-c983-44cf-8713-1265494527d3}, !- Outside Boundary Condition Object
  NoSun,                                  !- Sun Exposure
  NoWind,                                 !- Wind Exposure
  ,                                       !- View Factor to Ground
  ,                                       !- Number of Vertices
  9.144, -9.144, 2.4384,                  !- X,Y,Z Vertex 1 {m}
  9.144, 0, 2.4384,                       !- X,Y,Z Vertex 2 {m}
  4.572, 0, 2.4384,                       !- X,Y,Z Vertex 3 {m}
  4.572, -9.144, 2.4384;                  !- X,Y,Z Vertex 4 {m}

OS:ThermalZone,
  {de436f7a-6d8e-43b1-8775-1d3ed6f61d7e}, !- Handle
  living zone|unit 3,                     !- Name
  ,                                       !- Multiplier
  ,                                       !- Ceiling Height {m}
  ,                                       !- Volume {m3}
  ,                                       !- Floor Area {m2}
  ,                                       !- Zone Inside Convection Algorithm
  ,                                       !- Zone Outside Convection Algorithm
  ,                                       !- Zone Conditioning Equipment List Name
  {c00f9f4d-51e6-4703-b3b9-54d086f2b091}, !- Zone Air Inlet Port List
  {561c00f5-c359-459f-97db-c357f44dd44e}, !- Zone Air Exhaust Port List
  {f6754fd1-fae2-4d95-8bd8-9409b731cde2}, !- Zone Air Node Name
  {9069da75-c8e5-44e7-ae2a-784a45373e3a}, !- Zone Return Air Port List
  ,                                       !- Primary Daylighting Control Name
  ,                                       !- Fraction of Zone Controlled by Primary Daylighting Control
  ,                                       !- Secondary Daylighting Control Name
  ,                                       !- Fraction of Zone Controlled by Secondary Daylighting Control