!- NOTE: Auto-generated from /test/osw_files/SFA_4units_1story_FB_UA_3Beds_2Baths_Denver_WHTank_ClothesWasher.osw

OS:Version,
  {827e5845-4196-402a-9959-30457f529585}, !- Handle
  2.6.2;                                  !- Version Identifier

OS:Building,
  {52370fde-8cf7-48a2-b1a7-b6d92369b887}, !- Handle
  Building 1,                             !- Name
  ,                                       !- Building Sector Type
  0,                                      !- North Axis {deg}
  ,                                       !- Nominal Floor to Floor Height {m}
  ,                                       !- Space Type Name
  ,                                       !- Default Construction Set Name
  ,                                       !- Default Schedule Set Name
  2,                                      !- Standards Number of Stories
  1,                                      !- Standards Number of Above Ground Stories
  singlefamilyattached,                   !- Standards Building Type
  4;                                      !- Standards Number of Living Units

OS:Facility,
  {7cb11b53-4a00-4b01-a83f-0de38706db33}; !- Handle

OS:Site,
  {218af523-b7e8-4934-994d-ece57fc5371a}, !- Handle
  Denver Intl Ap_CO_USA,                  !- Name
  39.83,                                  !- Latitude {deg}
  -104.65,                                !- Longitude {deg}
  -7,                                     !- Time Zone {hr}
  1650,                                   !- Elevation {m}
  ;                                       !- Terrain

OS:SimulationControl,
  {c40b8a18-e456-4513-8fb7-dd37d05009f6}, !- Handle
  ,                                       !- Do Zone Sizing Calculation
  ,                                       !- Do System Sizing Calculation
  ,                                       !- Do Plant Sizing Calculation
  No;                                     !- Run Simulation for Sizing Periods

OS:Sizing:Parameters,
  {770d5bcd-a360-436c-bce7-1c3a409b21cb}, !- Handle
  1.25,                                   !- Heating Sizing Factor
  1.15;                                   !- Cooling Sizing Factor

OS:Timestep,
  {d2f1bf89-7d64-4edf-9c40-f8e9106b9608}, !- Handle
  6;                                      !- Number of Timesteps per Hour

OS:ShadowCalculation,
  {539344aa-1b6a-4d24-83e8-8280b895ed85}, !- Handle
  20,                                     !- Calculation Frequency
  200;                                    !- Maximum Figures in Shadow Overlap Calculations

OS:HeatBalanceAlgorithm,
  {cfeb6fd3-395b-4807-a82e-48c7e3ddff16}, !- Handle
  ConductionTransferFunction,             !- Algorithm
  200;                                    !- Surface Temperature Upper Limit {C}

OS:RunPeriod,
  {b84935c1-8c16-428e-b917-441779faeefa}, !- Handle
  Run Period 1,                           !- Name
  1,                                      !- Begin Month
  1,                                      !- Begin Day of Month
  12,                                     !- End Month
  31,                                     !- End Day of Month
  ,                                       !- Use Weather File Holidays and Special Days
  ,                                       !- Use Weather File Daylight Saving Period
  ,                                       !- Apply Weekend Holiday Rule
  ,                                       !- Use Weather File Rain Indicators
  ,                                       !- Use Weather File Snow Indicators
  ;                                       !- Number of Times Runperiod to be Repeated

OS:LifeCycleCost:Parameters,
  {5acd9133-c9fb-4b2c-a895-9efe1ef40a0c}, !- Handle
  ,                                       !- Analysis Type
  ,                                       !- Discounting Convention
  ,                                       !- Inflation Approach
  ,                                       !- Real Discount Rate
  ,                                       !- Nominal Discount Rate
  ,                                       !- Inflation
  ,                                       !- Base Date Month
  ,                                       !- Base Date Year
  ,                                       !- Service Date Month
  ,                                       !- Service Date Year
  ;                                       !- Length of Study Period in Years

OS:SurfaceConvectionAlgorithm:Outside,
  {f638ebd4-80fa-4e80-ac59-aad561309374}, !- Handle
  DOE-2;                                  !- Algorithm

OS:SurfaceConvectionAlgorithm:Inside,
  {f42e9dca-348b-4c8c-8ae8-bb3dccfbacc3}, !- Handle
  TARP;                                   !- Algorithm

OS:ZoneCapacitanceMultiplier:ResearchSpecial,
  {11c92b23-1a1f-47a0-b968-1eb1a8d0c022}, !- Handle
  ,                                       !- Temperature Capacity Multiplier
  15,                                     !- Humidity Capacity Multiplier
  ;                                       !- Carbon Dioxide Capacity Multiplier

OS:ThermalZone,
  {9a2c47f2-87e9-428e-80f6-725de3a4a496}, !- Handle
  living zone,                            !- Name
  ,                                       !- Multiplier
  ,                                       !- Ceiling Height {m}
  ,                                       !- Volume {m3}
  ,                                       !- Floor Area {m2}
  ,                                       !- Zone Inside Convection Algorithm
  ,                                       !- Zone Outside Convection Algorithm
  ,                                       !- Zone Conditioning Equipment List Name
  {9bac3bd5-61d2-4e7d-8b7c-fcf36a245cc9}, !- Zone Air Inlet Port List
  {9f70490c-4ca1-4a24-8192-dc4d1e7d9b9f}, !- Zone Air Exhaust Port List
  {cb02b8e6-ce60-4321-bc7f-7a748f80b79c}, !- Zone Air Node Name
  {fb1191d3-5bb2-4bac-9ef8-78ca5a43ea77}, !- Zone Return Air Port List
  ,                                       !- Primary Daylighting Control Name
  ,                                       !- Fraction of Zone Controlled by Primary Daylighting Control
  ,                                       !- Secondary Daylighting Control Name
  ,                                       !- Fraction of Zone Controlled by Secondary Daylighting Control
  ,                                       !- Illuminance Map Name
  ,                                       !- Group Rendering Name
  ,                                       !- Thermostat Name
  No;                                     !- Use Ideal Air Loads

OS:Node,
  {be1c30e4-e6b2-4e1a-a934-2150981e7a94}, !- Handle
  Node 1,                                 !- Name
  {cb02b8e6-ce60-4321-bc7f-7a748f80b79c}, !- Inlet Port
  ;                                       !- Outlet Port

OS:Connection,
  {cb02b8e6-ce60-4321-bc7f-7a748f80b79c}, !- Handle
  {f665008c-263a-430d-ad08-0e0fe73b2fe5}, !- Name
  {9a2c47f2-87e9-428e-80f6-725de3a4a496}, !- Source Object
  11,                                     !- Outlet Port
  {be1c30e4-e6b2-4e1a-a934-2150981e7a94}, !- Target Object
  2;                                      !- Inlet Port

OS:PortList,
  {9bac3bd5-61d2-4e7d-8b7c-fcf36a245cc9}, !- Handle
  {0c494cd9-3b2e-4aeb-9396-b1948be2b270}, !- Name
  {9a2c47f2-87e9-428e-80f6-725de3a4a496}; !- HVAC Component

OS:PortList,
  {9f70490c-4ca1-4a24-8192-dc4d1e7d9b9f}, !- Handle
  {d4b982a4-57c8-4195-b652-49678df00dd8}, !- Name
  {9a2c47f2-87e9-428e-80f6-725de3a4a496}; !- HVAC Component

OS:PortList,
  {fb1191d3-5bb2-4bac-9ef8-78ca5a43ea77}, !- Handle
  {89136001-5792-48ed-8217-ba9acaa8cf65}, !- Name
  {9a2c47f2-87e9-428e-80f6-725de3a4a496}; !- HVAC Component

OS:Sizing:Zone,
  {4b3bc4a6-07b3-4e06-8f71-fa5b32cba2d4}, !- Handle
  {9a2c47f2-87e9-428e-80f6-725de3a4a496}, !- Zone or ZoneList Name
  SupplyAirTemperature,                   !- Zone Cooling Design Supply Air Temperature Input Method
  14,                                     !- Zone Cooling Design Supply Air Temperature {C}
  11.11,                                  !- Zone Cooling Design Supply Air Temperature Difference {deltaC}
  SupplyAirTemperature,                   !- Zone Heating Design Supply Air Temperature Input Method
  40,                                     !- Zone Heating Design Supply Air Temperature {C}
  11.11,                                  !- Zone Heating Design Supply Air Temperature Difference {deltaC}
  0.0085,                                 !- Zone Cooling Design Supply Air Humidity Ratio {kg-H2O/kg-air}
  0.008,                                  !- Zone Heating Design Supply Air Humidity Ratio {kg-H2O/kg-air}
  ,                                       !- Zone Heating Sizing Factor
  ,                                       !- Zone Cooling Sizing Factor
  DesignDay,                              !- Cooling Design Air Flow Method
  ,                                       !- Cooling Design Air Flow Rate {m3/s}
  ,                                       !- Cooling Minimum Air Flow per Zone Floor Area {m3/s-m2}
  ,                                       !- Cooling Minimum Air Flow {m3/s}
  ,                                       !- Cooling Minimum Air Flow Fraction
  DesignDay,                              !- Heating Design Air Flow Method
  ,                                       !- Heating Design Air Flow Rate {m3/s}
  ,                                       !- Heating Maximum Air Flow per Zone Floor Area {m3/s-m2}
  ,                                       !- Heating Maximum Air Flow {m3/s}
  ,                                       !- Heating Maximum Air Flow Fraction
  ,                                       !- Design Zone Air Distribution Effectiveness in Cooling Mode
  ,                                       !- Design Zone Air Distribution Effectiveness in Heating Mode
  No,                                     !- Account for Dedicated Outdoor Air System
  NeutralSupplyAir,                       !- Dedicated Outdoor Air System Control Strategy
  autosize,                               !- Dedicated Outdoor Air Low Setpoint Temperature for Design {C}
  autosize;                               !- Dedicated Outdoor Air High Setpoint Temperature for Design {C}

OS:ZoneHVAC:EquipmentList,
  {62c2f236-4481-49e5-bc9c-f9a64d88c1c0}, !- Handle
  Zone HVAC Equipment List 1,             !- Name
  {9a2c47f2-87e9-428e-80f6-725de3a4a496}; !- Thermal Zone

OS:Space,
  {3ea250c3-7692-4efe-bc07-cc626f0e31b1}, !- Handle
  living space,                           !- Name
  {313a5335-f9bd-4aff-9aae-65038792855a}, !- Space Type Name
  ,                                       !- Default Construction Set Name
  ,                                       !- Default Schedule Set Name
  ,                                       !- Direction of Relative North {deg}
  ,                                       !- X Origin {m}
  ,                                       !- Y Origin {m}
  ,                                       !- Z Origin {m}
  ,                                       !- Building Story Name
  {9a2c47f2-87e9-428e-80f6-725de3a4a496}, !- Thermal Zone Name
  ,                                       !- Part of Total Floor Area
  ,                                       !- Design Specification Outdoor Air Object Name
  {a8dc9b9b-fa5c-435f-9e80-08b5b95d6c7c}; !- Building Unit Name

OS:Surface,
  {fc30100f-6122-4293-9871-8417dc98a71d}, !- Handle
  Surface 1,                              !- Name
  Floor,                                  !- Surface Type
  ,                                       !- Construction Name
  {3ea250c3-7692-4efe-bc07-cc626f0e31b1}, !- Space Name
  Surface,                                !- Outside Boundary Condition
  {d528cf48-edf9-44a2-ab9c-357e4d656e58}, !- Outside Boundary Condition Object
  NoSun,                                  !- Sun Exposure
  NoWind,                                 !- Wind Exposure
  ,                                       !- View Factor to Ground
  ,                                       !- Number of Vertices
  0, -9.144, 0,                           !- X,Y,Z Vertex 1 {m}
  0, 0, 0,                                !- X,Y,Z Vertex 2 {m}
  4.572, 0, 0,                            !- X,Y,Z Vertex 3 {m}
  4.572, -9.144, 0;                       !- X,Y,Z Vertex 4 {m}

OS:Surface,
  {4a617983-4780-47e1-8024-1d3beac9432d}, !- Handle
  Surface 2,                              !- Name
  Wall,                                   !- Surface Type
  ,                                       !- Construction Name
  {3ea250c3-7692-4efe-bc07-cc626f0e31b1}, !- Space Name
  Outdoors,                               !- Outside Boundary Condition
  ,                                       !- Outside Boundary Condition Object
  SunExposed,                             !- Sun Exposure
  WindExposed,                            !- Wind Exposure
  ,                                       !- View Factor to Ground
  ,                                       !- Number of Vertices
  0, 0, 2.4384,                           !- X,Y,Z Vertex 1 {m}
  0, 0, 0,                                !- X,Y,Z Vertex 2 {m}
  0, -9.144, 0,                           !- X,Y,Z Vertex 3 {m}
  0, -9.144, 2.4384;                      !- X,Y,Z Vertex 4 {m}

OS:Surface,
  {2a8a8825-9027-41dc-8a28-b59d4feea234}, !- Handle
  Surface 3,                              !- Name
  Wall,                                   !- Surface Type
  ,                                       !- Construction Name
  {3ea250c3-7692-4efe-bc07-cc626f0e31b1}, !- Space Name
  Outdoors,                               !- Outside Boundary Condition
  ,                                       !- Outside Boundary Condition Object
  SunExposed,                             !- Sun Exposure
  WindExposed,                            !- Wind Exposure
  ,                                       !- View Factor to Ground
  ,                                       !- Number of Vertices
  4.572, 0, 2.4384,                       !- X,Y,Z Vertex 1 {m}
  4.572, 0, 0,                            !- X,Y,Z Vertex 2 {m}
  0, 0, 0,                                !- X,Y,Z Vertex 3 {m}
  0, 0, 2.4384;                           !- X,Y,Z Vertex 4 {m}

OS:Surface,
  {e3b4c9e8-c180-42f3-ab58-73dfbd97d70e}, !- Handle
  Surface 4,                              !- Name
  Wall,                                   !- Surface Type
  ,                                       !- Construction Name
  {3ea250c3-7692-4efe-bc07-cc626f0e31b1}, !- Space Name
  Surface,                                !- Outside Boundary Condition
  {7373b542-28a3-488f-a00f-9f34d337fe15}, !- Outside Boundary Condition Object
  NoSun,                                  !- Sun Exposure
  NoWind,                                 !- Wind Exposure
  ,                                       !- View Factor to Ground
  ,                                       !- Number of Vertices
  4.572, -9.144, 2.4384,                  !- X,Y,Z Vertex 1 {m}
  4.572, -9.144, 0,                       !- X,Y,Z Vertex 2 {m}
  4.572, 0, 0,                            !- X,Y,Z Vertex 3 {m}
  4.572, 0, 2.4384;                       !- X,Y,Z Vertex 4 {m}

OS:Surface,
  {6b51599b-1ecb-41af-bcdc-c2123f1fa0b2}, !- Handle
  Surface 5,                              !- Name
  Wall,                                   !- Surface Type
  ,                                       !- Construction Name
  {3ea250c3-7692-4efe-bc07-cc626f0e31b1}, !- Space Name
  Outdoors,                               !- Outside Boundary Condition
  ,                                       !- Outside Boundary Condition Object
  SunExposed,                             !- Sun Exposure
  WindExposed,                            !- Wind Exposure
  ,                                       !- View Factor to Ground
  ,                                       !- Number of Vertices
  0, -9.144, 2.4384,                      !- X,Y,Z Vertex 1 {m}
  0, -9.144, 0,                           !- X,Y,Z Vertex 2 {m}
  4.572, -9.144, 0,                       !- X,Y,Z Vertex 3 {m}
  4.572, -9.144, 2.4384;                  !- X,Y,Z Vertex 4 {m}

OS:Surface,
  {6e5becb6-7268-4103-8c26-0d23cfba5052}, !- Handle
  Surface 6,                              !- Name
  RoofCeiling,                            !- Surface Type
  ,                                       !- Construction Name
  {3ea250c3-7692-4efe-bc07-cc626f0e31b1}, !- Space Name
  Surface,                                !- Outside Boundary Condition
  {f33179f7-2644-4d34-a14c-4d7e81191f60}, !- Outside Boundary Condition Object
  NoSun,                                  !- Sun Exposure
  NoWind,                                 !- Wind Exposure
  ,                                       !- View Factor to Ground
  ,                                       !- Number of Vertices
  4.572, -9.144, 2.4384,                  !- X,Y,Z Vertex 1 {m}
  4.572, 0, 2.4384,                       !- X,Y,Z Vertex 2 {m}
  0, 0, 2.4384,                           !- X,Y,Z Vertex 3 {m}
  0, -9.144, 2.4384;                      !- X,Y,Z Vertex 4 {m}

OS:SpaceType,
  {313a5335-f9bd-4aff-9aae-65038792855a}, !- Handle
  Space Type 1,                           !- Name
  ,                                       !- Default Construction Set Name
  ,                                       !- Default Schedule Set Name
  ,                                       !- Group Rendering Name
  ,                                       !- Design Specification Outdoor Air Object Name
  ,                                       !- Standards Building Type
  living;                                 !- Standards Space Type

OS:ThermalZone,
  {1a9eb689-716e-4f5e-9e8a-e995129cc514}, !- Handle
  living zone|unit 2,                     !- Name
  ,                                       !- Multiplier
  ,                                       !- Ceiling Height {m}
  ,                                       !- Volume {m3}
  ,                                       !- Floor Area {m2}
  ,                                       !- Zone Inside Convection Algorithm
  ,                                       !- Zone Outside Convection Algorithm
  ,                                       !- Zone Conditioning Equipment List Name
  {59d1466d-c1da-4aeb-a548-298963861b9f}, !- Zone Air Inlet Port List
  {c6e60ebb-0752-4a28-888c-51043b2a2ea4}, !- Zone Air Exhaust Port List
  {03e84635-fac7-4790-9fbb-2993e9388fbe}, !- Zone Air Node Name
  {1e22b43d-e81c-4daa-a03c-91fe04a8ecfe}, !- Zone Return Air Port List
  ,                                       !- Primary Daylighting Control Name
  ,                                       !- Fraction of Zone Controlled by Primary Daylighting Control
  ,                                       !- Secondary Daylighting Control Name
  ,                                       !- Fraction of Zone Controlled by Secondary Daylighting Control
  ,                                       !- Illuminance Map Name
  ,                                       !- Group Rendering Name
  ,                                       !- Thermostat Name
  No;                                     !- Use Ideal Air Loads

OS:Node,
  {9209067c-7d7c-4ff9-a01d-a5d1345e74a0}, !- Handle
  Node 2,                                 !- Name
  {03e84635-fac7-4790-9fbb-2993e9388fbe}, !- Inlet Port
  ;                                       !- Outlet Port

OS:Connection,
  {03e84635-fac7-4790-9fbb-2993e9388fbe}, !- Handle
  {e29c85f4-ed45-4b88-bd6b-3991dd8a99b5}, !- Name
  {1a9eb689-716e-4f5e-9e8a-e995129cc514}, !- Source Object
  11,                                     !- Outlet Port
  {9209067c-7d7c-4ff9-a01d-a5d1345e74a0}, !- Target Object
  2;                                      !- Inlet Port

OS:PortList,
  {59d1466d-c1da-4aeb-a548-298963861b9f}, !- Handle
  {64d3a1e1-922c-49f6-a451-5081975c4e75}, !- Name
  {1a9eb689-716e-4f5e-9e8a-e995129cc514}; !- HVAC Component

OS:PortList,
  {c6e60ebb-0752-4a28-888c-51043b2a2ea4}, !- Handle
  {dfea3eab-d320-4956-9f27-d7dadbc936e3}, !- Name
  {1a9eb689-716e-4f5e-9e8a-e995129cc514}; !- HVAC Component

OS:PortList,
  {1e22b43d-e81c-4daa-a03c-91fe04a8ecfe}, !- Handle
  {39f8097b-f5b7-4e49-b560-51ff589110c2}, !- Name
  {1a9eb689-716e-4f5e-9e8a-e995129cc514}; !- HVAC Component

OS:Sizing:Zone,
  {a6647666-eea0-46d4-830c-c373b9392ee9}, !- Handle
  {1a9eb689-716e-4f5e-9e8a-e995129cc514}, !- Zone or ZoneList Name
  SupplyAirTemperature,                   !- Zone Cooling Design Supply Air Temperature Input Method
  14,                                     !- Zone Cooling Design Supply Air Temperature {C}
  11.11,                                  !- Zone Cooling Design Supply Air Temperature Difference {deltaC}
  SupplyAirTemperature,                   !- Zone Heating Design Supply Air Temperature Input Method
  40,                                     !- Zone Heating Design Supply Air Temperature {C}
  11.11,                                  !- Zone Heating Design Supply Air Temperature Difference {deltaC}
  0.0085,                                 !- Zone Cooling Design Supply Air Humidity Ratio {kg-H2O/kg-air}
  0.008,                                  !- Zone Heating Design Supply Air Humidity Ratio {kg-H2O/kg-air}
  ,                                       !- Zone Heating Sizing Factor
  ,                                       !- Zone Cooling Sizing Factor
  DesignDay,                              !- Cooling Design Air Flow Method
  ,                                       !- Cooling Design Air Flow Rate {m3/s}
  ,                                       !- Cooling Minimum Air Flow per Zone Floor Area {m3/s-m2}
  ,                                       !- Cooling Minimum Air Flow {m3/s}
  ,                                       !- Cooling Minimum Air Flow Fraction
  DesignDay,                              !- Heating Design Air Flow Method
  ,                                       !- Heating Design Air Flow Rate {m3/s}
  ,                                       !- Heating Maximum Air Flow per Zone Floor Area {m3/s-m2}
  ,                                       !- Heating Maximum Air Flow {m3/s}
  ,                                       !- Heating Maximum Air Flow Fraction
  ,                                       !- Design Zone Air Distribution Effectiveness in Cooling Mode
  ,                                       !- Design Zone Air Distribution Effectiveness in Heating Mode
  No,                                     !- Account for Dedicated Outdoor Air System
  NeutralSupplyAir,                       !- Dedicated Outdoor Air System Control Strategy
  autosize,                               !- Dedicated Outdoor Air Low Setpoint Temperature for Design {C}
  autosize;                               !- Dedicated Outdoor Air High Setpoint Temperature for Design {C}

OS:ZoneHVAC:EquipmentList,
  {2ffba340-c305-48e9-8c36-818b1386f3a1}, !- Handle
  Zone HVAC Equipment List 2,             !- Name
  {1a9eb689-716e-4f5e-9e8a-e995129cc514}; !- Thermal Zone

OS:Space,
  {7d8b6dfc-bcbd-4522-88ed-fa3be2c1fe90}, !- Handle
  living space|unit 2|story 1,            !- Name
  {313a5335-f9bd-4aff-9aae-65038792855a}, !- Space Type Name
  ,                                       !- Default Construction Set Name
  ,                                       !- Default Schedule Set Name
  -0,                                     !- Direction of Relative North {deg}
  0,                                      !- X Origin {m}
  0,                                      !- Y Origin {m}
  0,                                      !- Z Origin {m}
  ,                                       !- Building Story Name
  {1a9eb689-716e-4f5e-9e8a-e995129cc514}, !- Thermal Zone Name
  ,                                       !- Part of Total Floor Area
  ,                                       !- Design Specification Outdoor Air Object Name
  {3cd7ebfe-50e0-4de3-858a-0e71ca06bf92}; !- Building Unit Name

OS:Surface,
  {9c340b98-fb4d-4061-b689-412ca4923482}, !- Handle
  Surface 12,                             !- Name
  RoofCeiling,                            !- Surface Type
  ,                                       !- Construction Name
  {7d8b6dfc-bcbd-4522-88ed-fa3be2c1fe90}, !- Space Name
  Surface,                                !- Outside Boundary Condition
  {f518b339-05a1-4d4a-8e03-a70d4babf120}, !- Outside Boundary Condition Object
  NoSun,                                  !- Sun Exposure
  NoWind,                                 !- Wind Exposure
  ,                                       !- View Factor to Ground
  ,                                       !- Number of Vertices
  9.144, -9.144, 2.4384,                  !- X,Y,Z Vertex 1 {m}
  9.144, 0, 2.4384,                       !- X,Y,Z Vertex 2 {m}
  4.572, 0, 2.4384,                       !- X,Y,Z Vertex 3 {m}
  4.572, -9.144, 2.4384;                  !- X,Y,Z Vertex 4 {m}

OS:Surface,
  {1c2b2950-cb42-4267-b903-311777d2b3f3}, !- Handle
  Surface 13,                             !- Name
  Wall,                                   !- Surface Type
  ,                                       !- Construction Name
  {7d8b6dfc-bcbd-4522-88ed-fa3be2c1fe90}, !- Space Name
  Outdoors,                               !- Outside Boundary Condition
  ,                                       !- Outside Boundary Condition Object
  SunExposed,                             !- Sun Exposure
  WindExposed,                            !- Wind Exposure
  ,                                       !- View Factor to Ground
  ,                                       !- Number of Vertices
  4.572, -9.144, 2.4384,                  !- X,Y,Z Vertex 1 {m}
  4.572, -9.144, 0,                       !- X,Y,Z Vertex 2 {m}
  9.144, -9.144, 0,                       !- X,Y,Z Vertex 3 {m}
  9.144, -9.144, 2.4384;                  !- X,Y,Z Vertex 4 {m}

OS:Surface,
  {7373b542-28a3-488f-a00f-9f34d337fe15}, !- Handle
  Surface 14,                             !- Name
  Wall,                                   !- Surface Type
  ,                                       !- Construction Name
  {7d8b6dfc-bcbd-4522-88ed-fa3be2c1fe90}, !- Space Name
  Surface,                                !- Outside Boundary Condition
  {e3b4c9e8-c180-42f3-ab58-73dfbd97d70e}, !- Outside Boundary Condition Object
  NoSun,                                  !- Sun Exposure
  NoWind,                                 !- Wind Exposure
  ,                                       !- View Factor to Ground
  ,                                       !- Number of Vertices
  4.572, 0, 2.4384,                       !- X,Y,Z Vertex 1 {m}
  4.572, 0, 0,                            !- X,Y,Z Vertex 2 {m}
  4.572, -9.144, 0,                       !- X,Y,Z Vertex 3 {m}
  4.572, -9.144, 2.4384;                  !- X,Y,Z Vertex 4 {m}

OS:Surface,
  {f6d011dd-de13-4228-8d1f-d7cf8a0ac912}, !- Handle
  Surface 15,                             !- Name
  Floor,                                  !- Surface Type
  ,                                       !- Construction Name
  {7d8b6dfc-bcbd-4522-88ed-fa3be2c1fe90}, !- Space Name
  Surface,                                !- Outside Boundary Condition
  {2518ced9-a4ba-4feb-b8b0-3de98ab1ed77}, !- Outside Boundary Condition Object
  NoSun,                                  !- Sun Exposure
  NoWind,                                 !- Wind Exposure
  ,                                       !- View Factor to Ground
  ,                                       !- Number of Vertices
  4.572, -9.144, 0,                       !- X,Y,Z Vertex 1 {m}
  4.572, 0, 0,                            !- X,Y,Z Vertex 2 {m}
  9.144, 0, 0,                            !- X,Y,Z Vertex 3 {m}
  9.144, -9.144, 0;                       !- X,Y,Z Vertex 4 {m}

OS:Surface,
  {3135edb3-8865-44ac-af8d-ee680da97c9a}, !- Handle
  Surface 16,                             !- Name
  Wall,                                   !- Surface Type
  ,                                       !- Construction Name
  {7d8b6dfc-bcbd-4522-88ed-fa3be2c1fe90}, !- Space Name
  Outdoors,                               !- Outside Boundary Condition
  ,                                       !- Outside Boundary Condition Object
  SunExposed,                             !- Sun Exposure
  WindExposed,                            !- Wind Exposure
  ,                                       !- View Factor to Ground
  ,                                       !- Number of Vertices
  9.144, 0, 2.4384,                       !- X,Y,Z Vertex 1 {m}
  9.144, 0, 0,                            !- X,Y,Z Vertex 2 {m}
  4.572, 0, 0,                            !- X,Y,Z Vertex 3 {m}
  4.572, 0, 2.4384;                       !- X,Y,Z Vertex 4 {m}

OS:Surface,
  {5fbfa3fa-9db1-4659-8c6b-4bff82e28254}, !- Handle
  Surface 17,                             !- Name
  Wall,                                   !- Surface Type
  ,                                       !- Construction Name
  {7d8b6dfc-bcbd-4522-88ed-fa3be2c1fe90}, !- Space Name
  Surface,                                !- Outside Boundary Condition
  {61f9376e-f539-4750-b99f-c28449552f37}, !- Outside Boundary Condition Object
  NoSun,                                  !- Sun Exposure
  NoWind,                                 !- Wind Exposure
  ,                                       !- View Factor to Ground
  ,                                       !- Number of Vertices
  9.144, -9.144, 2.4384,                  !- X,Y,Z Vertex 1 {m}
  9.144, -9.144, 0,                       !- X,Y,Z Vertex 2 {m}
  9.144, 0, 0,                            !- X,Y,Z Vertex 3 {m}
  9.144, 0, 2.4384;                       !- X,Y,Z Vertex 4 {m}

OS:ThermalZone,
  {083aaeed-ffb8-4f84-bb75-7987d633c2b3}, !- Handle
  living zone|unit 3,                     !- Name
  ,                                       !- Multiplier
  ,                                       !- Ceiling Height {m}
  ,                                       !- Volume {m3}
  ,                                       !- Floor Area {m2}
  ,                                       !- Zone Inside Convection Algorithm
  ,                                       !- Zone Outside Convection Algorithm
  ,                                       !- Zone Conditioning Equipment List Name