!- NOTE: Auto-generated from /test/osw_files/SFA_4units_1story_FB_UA_3Beds_2Baths_Denver_WHTank_ClothesWasher.osw

OS:Version,
  {b3b62d7c-2245-40a6-9205-9705aed3b9aa}, !- Handle
  2.6.1;                                  !- Version Identifier

OS:Building,
  {bf123df3-30c3-4f1d-ab7b-456c62123ff7}, !- Handle
  Building 1,                             !- Name
  ,                                       !- Building Sector Type
  0,                                      !- North Axis {deg}
  ,                                       !- Nominal Floor to Floor Height {m}
  ,                                       !- Space Type Name
  ,                                       !- Default Construction Set Name
  ,                                       !- Default Schedule Set Name
  2,                                      !- Standards Number of Stories
  1,                                      !- Standards Number of Above Ground Stories
  singlefamilyttached,                    !- Standards Building Type
  4;                                      !- Standards Number of Living Units

OS:Facility,
  {ffe5101f-3bcc-4857-9db5-71369ca77aa2}; !- Handle

OS:Site,
  {5af91a5a-be5a-41ef-beae-9d2ab4a114f6}, !- Handle
  Denver Intl Ap_CO_USA,                  !- Name
  39.83,                                  !- Latitude {deg}
  -104.65,                                !- Longitude {deg}
  -7,                                     !- Time Zone {hr}
  1650,                                   !- Elevation {m}
  ;                                       !- Terrain

OS:SimulationControl,
  {3e1721eb-b76b-4106-b774-05a994a08c90}, !- Handle
  ,                                       !- Do Zone Sizing Calculation
  ,                                       !- Do System Sizing Calculation
  ,                                       !- Do Plant Sizing Calculation
  No;                                     !- Run Simulation for Sizing Periods

OS:Sizing:Parameters,
  {22964329-d594-4077-bfab-0cdc047830cc}, !- Handle
  1.25,                                   !- Heating Sizing Factor
  1.15;                                   !- Cooling Sizing Factor

OS:Timestep,
  {f3cd4abf-7867-4f39-96e3-280fa9124365}, !- Handle
  6;                                      !- Number of Timesteps per Hour

OS:ShadowCalculation,
  {5fc7349d-a7aa-4473-99d5-0b00ee0afe14}, !- Handle
  20,                                     !- Calculation Frequency
  200;                                    !- Maximum Figures in Shadow Overlap Calculations

OS:HeatBalanceAlgorithm,
  {69096d78-2a7e-413f-b514-69856b684f54}, !- Handle
  ConductionTransferFunction,             !- Algorithm
  200;                                    !- Surface Temperature Upper Limit {C}

OS:RunPeriod,
  {f88a49ff-6007-4465-a154-000944565e35}, !- Handle
  Run Period 1,                           !- Name
  1,                                      !- Begin Month
  1,                                      !- Begin Day of Month
  12,                                     !- End Month
  31,                                     !- End Day of Month
  ,                                       !- Use Weather File Holidays and Special Days
  ,                                       !- Use Weather File Daylight Saving Period
  ,                                       !- Apply Weekend Holiday Rule
  ,                                       !- Use Weather File Rain Indicators
  ,                                       !- Use Weather File Snow Indicators
  ;                                       !- Number of Times Runperiod to be Repeated

OS:LifeCycleCost:Parameters,
  {522b88e9-345a-4708-ba29-b590bf95a982}, !- Handle
  ,                                       !- Analysis Type
  ,                                       !- Discounting Convention
  ,                                       !- Inflation Approach
  ,                                       !- Real Discount Rate
  ,                                       !- Nominal Discount Rate
  ,                                       !- Inflation
  ,                                       !- Base Date Month
  ,                                       !- Base Date Year
  ,                                       !- Service Date Month
  ,                                       !- Service Date Year
  ;                                       !- Length of Study Period in Years

OS:ThermalZone,
  {bfb4c340-e8f0-4c0a-8b96-8d1e8734f91d}, !- Handle
  living zone,                            !- Name
  ,                                       !- Multiplier
  ,                                       !- Ceiling Height {m}
  ,                                       !- Volume {m3}
  ,                                       !- Floor Area {m2}
  ,                                       !- Zone Inside Convection Algorithm
  ,                                       !- Zone Outside Convection Algorithm
  ,                                       !- Zone Conditioning Equipment List Name
  {74a46ec7-41cc-4293-936f-324b7d2b876f}, !- Zone Air Inlet Port List
  {c7df9dc1-20bc-4872-bd66-b2ffc3cf5f29}, !- Zone Air Exhaust Port List
  {3c7df3de-9b6d-413f-b9b4-4dcc7fe994e1}, !- Zone Air Node Name
  {668a9018-c881-4cd6-b194-42b49b8b9307}, !- Zone Return Air Port List
  ,                                       !- Primary Daylighting Control Name
  ,                                       !- Fraction of Zone Controlled by Primary Daylighting Control
  ,                                       !- Secondary Daylighting Control Name
  ,                                       !- Fraction of Zone Controlled by Secondary Daylighting Control
  ,                                       !- Illuminance Map Name
  ,                                       !- Group Rendering Name
  ,                                       !- Thermostat Name
  No;                                     !- Use Ideal Air Loads

OS:Node,
  {79915c26-f006-429b-bf16-bde42101c491}, !- Handle
  Node 1,                                 !- Name
  {3c7df3de-9b6d-413f-b9b4-4dcc7fe994e1}, !- Inlet Port
  ;                                       !- Outlet Port

OS:Connection,
  {3c7df3de-9b6d-413f-b9b4-4dcc7fe994e1}, !- Handle
  {3e6a684f-e538-4f41-9230-29f058fa084c}, !- Name
  {bfb4c340-e8f0-4c0a-8b96-8d1e8734f91d}, !- Source Object
  11,                                     !- Outlet Port
  {79915c26-f006-429b-bf16-bde42101c491}, !- Target Object
  2;                                      !- Inlet Port

OS:PortList,
  {74a46ec7-41cc-4293-936f-324b7d2b876f}, !- Handle
  {b25f35a6-46b8-4348-936a-409ee09a7599}, !- Name
  {bfb4c340-e8f0-4c0a-8b96-8d1e8734f91d}; !- HVAC Component

OS:PortList,
  {c7df9dc1-20bc-4872-bd66-b2ffc3cf5f29}, !- Handle
  {8930083d-b544-43e9-9e30-c8349f7d0181}, !- Name
  {bfb4c340-e8f0-4c0a-8b96-8d1e8734f91d}; !- HVAC Component

OS:PortList,
  {668a9018-c881-4cd6-b194-42b49b8b9307}, !- Handle
  {15e74170-45b3-4709-9a1e-19f86b129480}, !- Name
  {bfb4c340-e8f0-4c0a-8b96-8d1e8734f91d}; !- HVAC Component

OS:Sizing:Zone,
  {2cbb5f47-d9cc-429d-9fc4-e7bd9a3f8d6a}, !- Handle
  {bfb4c340-e8f0-4c0a-8b96-8d1e8734f91d}, !- Zone or ZoneList Name
  SupplyAirTemperature,                   !- Zone Cooling Design Supply Air Temperature Input Method
  14,                                     !- Zone Cooling Design Supply Air Temperature {C}
  11.11,                                  !- Zone Cooling Design Supply Air Temperature Difference {deltaC}
  SupplyAirTemperature,                   !- Zone Heating Design Supply Air Temperature Input Method
  40,                                     !- Zone Heating Design Supply Air Temperature {C}
  11.11,                                  !- Zone Heating Design Supply Air Temperature Difference {deltaC}
  0.0085,                                 !- Zone Cooling Design Supply Air Humidity Ratio {kg-H2O/kg-air}
  0.008,                                  !- Zone Heating Design Supply Air Humidity Ratio {kg-H2O/kg-air}
  ,                                       !- Zone Heating Sizing Factor
  ,                                       !- Zone Cooling Sizing Factor
  DesignDay,                              !- Cooling Design Air Flow Method
  ,                                       !- Cooling Design Air Flow Rate {m3/s}
  ,                                       !- Cooling Minimum Air Flow per Zone Floor Area {m3/s-m2}
  ,                                       !- Cooling Minimum Air Flow {m3/s}
  ,                                       !- Cooling Minimum Air Flow Fraction
  DesignDay,                              !- Heating Design Air Flow Method
  ,                                       !- Heating Design Air Flow Rate {m3/s}
  ,                                       !- Heating Maximum Air Flow per Zone Floor Area {m3/s-m2}
  ,                                       !- Heating Maximum Air Flow {m3/s}
  ,                                       !- Heating Maximum Air Flow Fraction
  ,                                       !- Design Zone Air Distribution Effectiveness in Cooling Mode
  ,                                       !- Design Zone Air Distribution Effectiveness in Heating Mode
  No,                                     !- Account for Dedicated Outdoor Air System
  NeutralSupplyAir,                       !- Dedicated Outdoor Air System Control Strategy
  autosize,                               !- Dedicated Outdoor Air Low Setpoint Temperature for Design {C}
  autosize;                               !- Dedicated Outdoor Air High Setpoint Temperature for Design {C}

OS:ZoneHVAC:EquipmentList,
  {fffbfc17-0c96-4842-aeca-4b9ef63c489c}, !- Handle
  Zone HVAC Equipment List 1,             !- Name
  {bfb4c340-e8f0-4c0a-8b96-8d1e8734f91d}; !- Thermal Zone

OS:Space,
  {438c6e15-135a-4af0-ad8e-f0fbdbf31145}, !- Handle
  living space,                           !- Name
  {359dfdd8-c4a5-4999-8abb-201638e6f21b}, !- Space Type Name
  ,                                       !- Default Construction Set Name
  ,                                       !- Default Schedule Set Name
  ,                                       !- Direction of Relative North {deg}
  ,                                       !- X Origin {m}
  ,                                       !- Y Origin {m}
  ,                                       !- Z Origin {m}
  ,                                       !- Building Story Name
  {bfb4c340-e8f0-4c0a-8b96-8d1e8734f91d}, !- Thermal Zone Name
  ,                                       !- Part of Total Floor Area
  ,                                       !- Design Specification Outdoor Air Object Name
  {bf3c9e7a-063a-41d6-9771-f3096279e336}; !- Building Unit Name

OS:Surface,
  {704a22c6-c648-4f57-8902-7946f762aa8b}, !- Handle
  Surface 1,                              !- Name
  Floor,                                  !- Surface Type
  ,                                       !- Construction Name
  {438c6e15-135a-4af0-ad8e-f0fbdbf31145}, !- Space Name
  Surface,                                !- Outside Boundary Condition
  {2ebb5b7c-7f20-4c74-966e-ebda155656e2}, !- Outside Boundary Condition Object
  NoSun,                                  !- Sun Exposure
  NoWind,                                 !- Wind Exposure
  ,                                       !- View Factor to Ground
  ,                                       !- Number of Vertices
  0, -9.144, 0,                           !- X,Y,Z Vertex 1 {m}
  0, 0, 0,                                !- X,Y,Z Vertex 2 {m}
  4.572, 0, 0,                            !- X,Y,Z Vertex 3 {m}
  4.572, -9.144, 0;                       !- X,Y,Z Vertex 4 {m}

OS:Surface,
  {edfa3c6d-32cd-48c9-8adf-322c9bf9520e}, !- Handle
  Surface 2,                              !- Name
  Wall,                                   !- Surface Type
  ,                                       !- Construction Name
  {438c6e15-135a-4af0-ad8e-f0fbdbf31145}, !- Space Name
  Outdoors,                               !- Outside Boundary Condition
  ,                                       !- Outside Boundary Condition Object
  SunExposed,                             !- Sun Exposure
  WindExposed,                            !- Wind Exposure
  ,                                       !- View Factor to Ground
  ,                                       !- Number of Vertices
  0, 0, 2.4384,                           !- X,Y,Z Vertex 1 {m}
  0, 0, 0,                                !- X,Y,Z Vertex 2 {m}
  0, -9.144, 0,                           !- X,Y,Z Vertex 3 {m}
  0, -9.144, 2.4384;                      !- X,Y,Z Vertex 4 {m}

OS:Surface,
  {adf9de64-9d12-48f1-b4d7-a40335f2a4b1}, !- Handle
  Surface 3,                              !- Name
  Wall,                                   !- Surface Type
  ,                                       !- Construction Name
  {438c6e15-135a-4af0-ad8e-f0fbdbf31145}, !- Space Name
  Outdoors,                               !- Outside Boundary Condition
  ,                                       !- Outside Boundary Condition Object
  SunExposed,                             !- Sun Exposure
  WindExposed,                            !- Wind Exposure
  ,                                       !- View Factor to Ground
  ,                                       !- Number of Vertices
  4.572, 0, 2.4384,                       !- X,Y,Z Vertex 1 {m}
  4.572, 0, 0,                            !- X,Y,Z Vertex 2 {m}
  0, 0, 0,                                !- X,Y,Z Vertex 3 {m}
  0, 0, 2.4384;                           !- X,Y,Z Vertex 4 {m}

OS:Surface,
  {c0f4dc0f-c8ad-46ec-b6e9-d12317796997}, !- Handle
  Surface 4,                              !- Name
  Wall,                                   !- Surface Type
  ,                                       !- Construction Name
  {438c6e15-135a-4af0-ad8e-f0fbdbf31145}, !- Space Name
  Surface,                                !- Outside Boundary Condition
  {e2e4b271-6091-47ba-861d-9615401500d0}, !- Outside Boundary Condition Object
  NoSun,                                  !- Sun Exposure
  NoWind,                                 !- Wind Exposure
  ,                                       !- View Factor to Ground
  ,                                       !- Number of Vertices
  4.572, -9.144, 2.4384,                  !- X,Y,Z Vertex 1 {m}
  4.572, -9.144, 0,                       !- X,Y,Z Vertex 2 {m}
  4.572, 0, 0,                            !- X,Y,Z Vertex 3 {m}
  4.572, 0, 2.4384;                       !- X,Y,Z Vertex 4 {m}

OS:Surface,
  {2064cf0a-4873-4787-8074-daaa14f85260}, !- Handle
  Surface 5,                              !- Name
  Wall,                                   !- Surface Type
  ,                                       !- Construction Name
  {438c6e15-135a-4af0-ad8e-f0fbdbf31145}, !- Space Name
  Outdoors,                               !- Outside Boundary Condition
  ,                                       !- Outside Boundary Condition Object
  SunExposed,                             !- Sun Exposure
  WindExposed,                            !- Wind Exposure
  ,                                       !- View Factor to Ground
  ,                                       !- Number of Vertices
  0, -9.144, 2.4384,                      !- X,Y,Z Vertex 1 {m}
  0, -9.144, 0,                           !- X,Y,Z Vertex 2 {m}
  4.572, -9.144, 0,                       !- X,Y,Z Vertex 3 {m}
  4.572, -9.144, 2.4384;                  !- X,Y,Z Vertex 4 {m}

OS:Surface,
  {323ce654-5cd5-42ba-a11d-bd6e33b826c2}, !- Handle
  Surface 6,                              !- Name
  RoofCeiling,                            !- Surface Type
  ,                                       !- Construction Name
  {438c6e15-135a-4af0-ad8e-f0fbdbf31145}, !- Space Name
  Surface,                                !- Outside Boundary Condition
  {cabded62-5d66-4dd4-b2e6-1ac529a919d2}, !- Outside Boundary Condition Object
  NoSun,                                  !- Sun Exposure
  NoWind,                                 !- Wind Exposure
  ,                                       !- View Factor to Ground
  ,                                       !- Number of Vertices
  4.572, -9.144, 2.4384,                  !- X,Y,Z Vertex 1 {m}
  4.572, 0, 2.4384,                       !- X,Y,Z Vertex 2 {m}
  0, 0, 2.4384,                           !- X,Y,Z Vertex 3 {m}
  0, -9.144, 2.4384;                      !- X,Y,Z Vertex 4 {m}

OS:SpaceType,
  {359dfdd8-c4a5-4999-8abb-201638e6f21b}, !- Handle
  Space Type 1,                           !- Name
  ,                                       !- Default Construction Set Name
  ,                                       !- Default Schedule Set Name
  ,                                       !- Group Rendering Name
  ,                                       !- Design Specification Outdoor Air Object Name
  ,                                       !- Standards Building Type
  living;                                 !- Standards Space Type

OS:ThermalZone,
  {a635521a-a045-4c3a-9c49-32d21ca48a9f}, !- Handle
  living zone|unit 2,                     !- Name
  ,                                       !- Multiplier
  ,                                       !- Ceiling Height {m}
  ,                                       !- Volume {m3}
  ,                                       !- Floor Area {m2}
  ,                                       !- Zone Inside Convection Algorithm
  ,                                       !- Zone Outside Convection Algorithm
  ,                                       !- Zone Conditioning Equipment List Name
  {fe98f789-c4c1-4240-9a53-7cf97c5c3745}, !- Zone Air Inlet Port List
  {c10ade9b-6ded-4716-8baf-99a754588c92}, !- Zone Air Exhaust Port List
  {9dd22589-7fd4-412a-8d17-37185c84c8b4}, !- Zone Air Node Name
  {504ec233-d69b-480f-b5b0-b17a8ef1bece}, !- Zone Return Air Port List
  ,                                       !- Primary Daylighting Control Name
  ,                                       !- Fraction of Zone Controlled by Primary Daylighting Control
  ,                                       !- Secondary Daylighting Control Name
  ,                                       !- Fraction of Zone Controlled by Secondary Daylighting Control
  ,                                       !- Illuminance Map Name
  ,                                       !- Group Rendering Name
  ,                                       !- Thermostat Name
  No;                                     !- Use Ideal Air Loads

OS:Node,
  {92f79d36-ad14-4e9f-961e-258b384808e6}, !- Handle
  Node 2,                                 !- Name
  {9dd22589-7fd4-412a-8d17-37185c84c8b4}, !- Inlet Port
  ;                                       !- Outlet Port

OS:Connection,
  {9dd22589-7fd4-412a-8d17-37185c84c8b4}, !- Handle
  {b23bcedd-65a8-4500-b9b5-4062780cc67e}, !- Name
  {a635521a-a045-4c3a-9c49-32d21ca48a9f}, !- Source Object
  11,                                     !- Outlet Port
  {92f79d36-ad14-4e9f-961e-258b384808e6}, !- Target Object
  2;                                      !- Inlet Port

OS:PortList,
  {fe98f789-c4c1-4240-9a53-7cf97c5c3745}, !- Handle
  {a5a274fe-cb5e-4c50-8cc3-593a755715c4}, !- Name
  {a635521a-a045-4c3a-9c49-32d21ca48a9f}; !- HVAC Component

OS:PortList,
  {c10ade9b-6ded-4716-8baf-99a754588c92}, !- Handle
  {fb0283b1-5849-4e93-b5c9-ad839dbd77be}, !- Name
  {a635521a-a045-4c3a-9c49-32d21ca48a9f}; !- HVAC Component

OS:PortList,
  {504ec233-d69b-480f-b5b0-b17a8ef1bece}, !- Handle
  {3392bb6e-9c92-44da-8160-832daec146cd}, !- Name
  {a635521a-a045-4c3a-9c49-32d21ca48a9f}; !- HVAC Component

OS:Sizing:Zone,
  {3a275c39-ea69-4243-8502-e34ed77861e8}, !- Handle
  {a635521a-a045-4c3a-9c49-32d21ca48a9f}, !- Zone or ZoneList Name
  SupplyAirTemperature,                   !- Zone Cooling Design Supply Air Temperature Input Method
  14,                                     !- Zone Cooling Design Supply Air Temperature {C}
  11.11,                                  !- Zone Cooling Design Supply Air Temperature Difference {deltaC}
  SupplyAirTemperature,                   !- Zone Heating Design Supply Air Temperature Input Method
  40,                                     !- Zone Heating Design Supply Air Temperature {C}
  11.11,                                  !- Zone Heating Design Supply Air Temperature Difference {deltaC}
  0.0085,                                 !- Zone Cooling Design Supply Air Humidity Ratio {kg-H2O/kg-air}
  0.008,                                  !- Zone Heating Design Supply Air Humidity Ratio {kg-H2O/kg-air}
  ,                                       !- Zone Heating Sizing Factor
  ,                                       !- Zone Cooling Sizing Factor
  DesignDay,                              !- Cooling Design Air Flow Method
  ,                                       !- Cooling Design Air Flow Rate {m3/s}
  ,                                       !- Cooling Minimum Air Flow per Zone Floor Area {m3/s-m2}
  ,                                       !- Cooling Minimum Air Flow {m3/s}
  ,                                       !- Cooling Minimum Air Flow Fraction
  DesignDay,                              !- Heating Design Air Flow Method
  ,                                       !- Heating Design Air Flow Rate {m3/s}
  ,                                       !- Heating Maximum Air Flow per Zone Floor Area {m3/s-m2}
  ,                                       !- Heating Maximum Air Flow {m3/s}
  ,                                       !- Heating Maximum Air Flow Fraction
  ,                                       !- Design Zone Air Distribution Effectiveness in Cooling Mode
  ,                                       !- Design Zone Air Distribution Effectiveness in Heating Mode
  No,                                     !- Account for Dedicated Outdoor Air System
  NeutralSupplyAir,                       !- Dedicated Outdoor Air System Control Strategy
  autosize,                               !- Dedicated Outdoor Air Low Setpoint Temperature for Design {C}
  autosize;                               !- Dedicated Outdoor Air High Setpoint Temperature for Design {C}

OS:ZoneHVAC:EquipmentList,
  {e7ec61a8-7b90-4490-8778-94c5d593d986}, !- Handle
  Zone HVAC Equipment List 2,             !- Name
  {a635521a-a045-4c3a-9c49-32d21ca48a9f}; !- Thermal Zone

OS:Space,
  {700f1f9b-f1b4-44e0-b2e1-3d8e786fed43}, !- Handle
  living space|unit 2|story 1,            !- Name
  {359dfdd8-c4a5-4999-8abb-201638e6f21b}, !- Space Type Name
  ,                                       !- Default Construction Set Name
  ,                                       !- Default Schedule Set Name
  -0,                                     !- Direction of Relative North {deg}
  0,                                      !- X Origin {m}
  0,                                      !- Y Origin {m}
  0,                                      !- Z Origin {m}
  ,                                       !- Building Story Name
  {a635521a-a045-4c3a-9c49-32d21ca48a9f}, !- Thermal Zone Name
  ,                                       !- Part of Total Floor Area
  ,                                       !- Design Specification Outdoor Air Object Name
  {d2757cfd-1804-4c99-b4c4-9f2bbac5fc2e}; !- Building Unit Name

OS:Surface,
  {e2e4b271-6091-47ba-861d-9615401500d0}, !- Handle
  Surface 12,                             !- Name
  Wall,                                   !- Surface Type
  ,                                       !- Construction Name
  {700f1f9b-f1b4-44e0-b2e1-3d8e786fed43}, !- Space Name
  Surface,                                !- Outside Boundary Condition
  {c0f4dc0f-c8ad-46ec-b6e9-d12317796997}, !- Outside Boundary Condition Object
  NoSun,                                  !- Sun Exposure
  NoWind,                                 !- Wind Exposure
  ,                                       !- View Factor to Ground
  ,                                       !- Number of Vertices
  4.572, 0, 2.4384,                       !- X,Y,Z Vertex 1 {m}
  4.572, 0, 0,                            !- X,Y,Z Vertex 2 {m}
  4.572, -9.144, 0,                       !- X,Y,Z Vertex 3 {m}
  4.572, -9.144, 2.4384;                  !- X,Y,Z Vertex 4 {m}

OS:Surface,
  {e315ee3a-0885-43bb-8713-c810d40bee9d}, !- Handle
  Surface 13,                             !- Name
  Wall,                                   !- Surface Type
  ,                                       !- Construction Name
  {700f1f9b-f1b4-44e0-b2e1-3d8e786fed43}, !- Space Name
  Surface,                                !- Outside Boundary Condition
  {d12e5bf3-6e47-42df-a8cb-267bfb23b7f3}, !- Outside Boundary Condition Object
  NoSun,                                  !- Sun Exposure
  NoWind,                                 !- Wind Exposure
  ,                                       !- View Factor to Ground
  ,                                       !- Number of Vertices
  9.144, -9.144, 2.4384,                  !- X,Y,Z Vertex 1 {m}
  9.144, -9.144, 0,                       !- X,Y,Z Vertex 2 {m}
  9.144, 0, 0,                            !- X,Y,Z Vertex 3 {m}
  9.144, 0, 2.4384;                       !- X,Y,Z Vertex 4 {m}

OS:Surface,
  {5226e082-89d5-48aa-8d73-01cb365e427c}, !- Handle
  Surface 14,                             !- Name
  RoofCeiling,                            !- Surface Type
  ,                                       !- Construction Name
  {700f1f9b-f1b4-44e0-b2e1-3d8e786fed43}, !- Space Name
  Surface,                                !- Outside Boundary Condition
  {78d49706-f298-4532-b43c-14d94f0bb9ad}, !- Outside Boundary Condition Object
  NoSun,                                  !- Sun Exposure
  NoWind,                                 !- Wind Exposure
  ,                                       !- View Factor to Ground
  ,                                       !- Number of Vertices
  9.144, -9.144, 2.4384,                  !- X,Y,Z Vertex 1 {m}
  9.144, 0, 2.4384,                       !- X,Y,Z Vertex 2 {m}
  4.572, 0, 2.4384,                       !- X,Y,Z Vertex 3 {m}
  4.572, -9.144, 2.4384;                  !- X,Y,Z Vertex 4 {m}

OS:Surface,
  {e09bda41-0803-43ea-b6bb-da941bd5c647}, !- Handle
  Surface 15,                             !- Name
  Wall,                                   !- Surface Type
  ,                                       !- Construction Name
  {700f1f9b-f1b4-44e0-b2e1-3d8e786fed43}, !- Space Name
  Outdoors,                               !- Outside Boundary Condition
  ,                                       !- Outside Boundary Condition Object
  SunExposed,                             !- Sun Exposure
  WindExposed,                            !- Wind Exposure
  ,                                       !- View Factor to Ground
  ,                                       !- Number of Vertices
  9.144, 0, 2.4384,                       !- X,Y,Z Vertex 1 {m}
  9.144, 0, 0,                            !- X,Y,Z Vertex 2 {m}
  4.572, 0, 0,                            !- X,Y,Z Vertex 3 {m}
  4.572, 0, 2.4384;                       !- X,Y,Z Vertex 4 {m}

OS:Surface,
  {f7242b84-ed6e-4f0d-918c-e20142a4743a}, !- Handle
  Surface 16,                             !- Name
  Floor,                                  !- Surface Type
  ,                                       !- Construction Name
  {700f1f9b-f1b4-44e0-b2e1-3d8e786fed43}, !- Space Name
  Surface,                                !- Outside Boundary Condition
  {1c7006fa-ea43-4129-8798-a7cb19e8f76a}, !- Outside Boundary Condition Object
  NoSun,                                  !- Sun Exposure
  NoWind,                                 !- Wind Exposure
  ,                                       !- View Factor to Ground
  ,                                       !- Number of Vertices
  4.572, -9.144, 0,                       !- X,Y,Z Vertex 1 {m}
  4.572, 0, 0,                            !- X,Y,Z Vertex 2 {m}
  9.144, 0, 0,                            !- X,Y,Z Vertex 3 {m}
  9.144, -9.144, 0;                       !- X,Y,Z Vertex 4 {m}

OS:Surface,
  {64e95179-2325-491b-94b4-712bfa53b7a6}, !- Handle
  Surface 17,                             !- Name
  Wall,                                   !- Surface Type
  ,                                       !- Construction Name
  {700f1f9b-f1b4-44e0-b2e1-3d8e786fed43}, !- Space Name
  Outdoors,                               !- Outside Boundary Condition
  ,                                       !- Outside Boundary Condition Object
  SunExposed,                             !- Sun Exposure
  WindExposed,                            !- Wind Exposure
  ,                                       !- View Factor to Ground
  ,                                       !- Number of Vertices
  4.572, -9.144, 2.4384,                  !- X,Y,Z Vertex 1 {m}
  4.572, -9.144, 0,                       !- X,Y,Z Vertex 2 {m}
  9.144, -9.144, 0,                       !- X,Y,Z Vertex 3 {m}
  9.144, -9.144, 2.4384;                  !- X,Y,Z Vertex 4 {m}

OS:ThermalZone,
  {2e6289bb-5ccd-4348-898c-0ee2aa2181a8}, !- Handle
  living zone|unit 3,                     !- Name
  ,                                       !- Multiplier
  ,                                       !- Ceiling Height {m}
  ,                                       !- Volume {m3}
  ,                                       !- Floor Area {m2}
  ,                                       !- Zone Inside Convection Algorithm
  ,                                       !- Zone Outside Convection Algorithm
  ,                                       !- Zone Conditioning Equipment List Name
  {66ab84b5-414a-429d-a36a-ce3610398ffd}, !- Zone Air Inlet Port List
  {bfc749a7-6bf0-42d9-90ae-e4a629f1c2c8}, !- Zone Air Exhaust Port List
  {953d8576-c1f3-4cc6-a57a-979603a3f888}, !- Zone Air Node Name
  {91482e1e-4e9f-4c33-8962-60862302f2b6}, !- Zone Return Air Port List
  ,                                       !- Primary Daylighting Control Name
  ,                                       !- Fraction of Zone Controlled by Primary Daylighting Control
  ,                                       !- Secondary Daylighting Control Name
  ,                                       !- Fraction of Zone Controlled by Secondary Daylighting Control