!- NOTE: Auto-generated from /test/osw_files/SFD_2000sqft_2story_FB_GRG_UA_3Beds_2Baths_Denver_WHTank_ClothesWasher.osw

OS:Version,
  {ba32a50d-4e2c-4d3c-9750-8475c065a50e}, !- Handle
  2.6.1;                                  !- Version Identifier

OS:Building,
  {2a9e7f0c-e127-45dc-acaa-2747735febe5}, !- Handle
  Building 1,                             !- Name
  ,                                       !- Building Sector Type
  0,                                      !- North Axis {deg}
  ,                                       !- Nominal Floor to Floor Height {m}
  ,                                       !- Space Type Name
  ,                                       !- Default Construction Set Name
  ,                                       !- Default Schedule Set Name
  3,                                      !- Standards Number of Stories
  2,                                      !- Standards Number of Above Ground Stories
  singlefamilydetached,                   !- Standards Building Type
  1;                                      !- Standards Number of Living Units

OS:Facility,
  {08a6ae10-2e02-465c-bdec-f664b84fd6c6}; !- Handle

OS:Site,
  {49bb31f7-e24c-454b-a7d9-6389a95de26c}, !- Handle
  Denver Intl Ap_CO_USA,                  !- Name
  39.83,                                  !- Latitude {deg}
  -104.65,                                !- Longitude {deg}
  -7,                                     !- Time Zone {hr}
  1650,                                   !- Elevation {m}
  ;                                       !- Terrain

OS:SimulationControl,
  {6d092227-376a-4482-8dbb-9bb51c9703cb}, !- Handle
  ,                                       !- Do Zone Sizing Calculation
  ,                                       !- Do System Sizing Calculation
  ,                                       !- Do Plant Sizing Calculation
  No;                                     !- Run Simulation for Sizing Periods

OS:Sizing:Parameters,
  {823b79d1-a8e5-4c85-84e8-91f30fa7b738}, !- Handle
  1.25,                                   !- Heating Sizing Factor
  1.15;                                   !- Cooling Sizing Factor

OS:Timestep,
  {2525a9bb-3d1d-4a00-8c1a-8a18b013eded}, !- Handle
  6;                                      !- Number of Timesteps per Hour

OS:ShadowCalculation,
  {17f86ea7-ab46-40c1-8b83-6c96072941e8}, !- Handle
  20,                                     !- Calculation Frequency
  200;                                    !- Maximum Figures in Shadow Overlap Calculations

OS:HeatBalanceAlgorithm,
  {7a3426f0-6300-4178-bebb-1365db468d3c}, !- Handle
  ConductionTransferFunction,             !- Algorithm
  200;                                    !- Surface Temperature Upper Limit {C}

OS:RunPeriod,
  {b2caaa1e-e069-4be7-982b-3be806f9ae34}, !- Handle
  Run Period 1,                           !- Name
  1,                                      !- Begin Month
  1,                                      !- Begin Day of Month
  12,                                     !- End Month
  31,                                     !- End Day of Month
  ,                                       !- Use Weather File Holidays and Special Days
  ,                                       !- Use Weather File Daylight Saving Period
  ,                                       !- Apply Weekend Holiday Rule
  ,                                       !- Use Weather File Rain Indicators
  ,                                       !- Use Weather File Snow Indicators
  ;                                       !- Number of Times Runperiod to be Repeated

OS:LifeCycleCost:Parameters,
  {b701aa4b-ea9e-4c7c-a153-b724825b0c19}, !- Handle
  ,                                       !- Analysis Type
  ,                                       !- Discounting Convention
  ,                                       !- Inflation Approach
  ,                                       !- Real Discount Rate
  ,                                       !- Nominal Discount Rate
  ,                                       !- Inflation
  ,                                       !- Base Date Month
  ,                                       !- Base Date Year
  ,                                       !- Service Date Month
  ,                                       !- Service Date Year
  ;                                       !- Length of Study Period in Years

OS:ThermalZone,
  {21366a4f-396e-403f-ba39-e7a786f69377}, !- Handle
  living zone,                            !- Name
  ,                                       !- Multiplier
  ,                                       !- Ceiling Height {m}
  ,                                       !- Volume {m3}
  ,                                       !- Floor Area {m2}
  ,                                       !- Zone Inside Convection Algorithm
  ,                                       !- Zone Outside Convection Algorithm
  ,                                       !- Zone Conditioning Equipment List Name
  {4ea39174-0839-4467-8be0-a11eed80442f}, !- Zone Air Inlet Port List
  {67f6c231-13ac-422a-bfc6-2e392cbe6b3c}, !- Zone Air Exhaust Port List
  {fb1547ab-b83f-4127-9cdb-da99b7bd1275}, !- Zone Air Node Name
  {2e93f9f7-b4af-4b26-9d17-dc20bdeacbb8}, !- Zone Return Air Port List
  ,                                       !- Primary Daylighting Control Name
  ,                                       !- Fraction of Zone Controlled by Primary Daylighting Control
  ,                                       !- Secondary Daylighting Control Name
  ,                                       !- Fraction of Zone Controlled by Secondary Daylighting Control
  ,                                       !- Illuminance Map Name
  ,                                       !- Group Rendering Name
  ,                                       !- Thermostat Name
  No;                                     !- Use Ideal Air Loads

OS:Node,
  {a8e7338c-8dd7-47f4-b82e-356a07fa451b}, !- Handle
  Node 1,                                 !- Name
  {fb1547ab-b83f-4127-9cdb-da99b7bd1275}, !- Inlet Port
  ;                                       !- Outlet Port

OS:Connection,
  {fb1547ab-b83f-4127-9cdb-da99b7bd1275}, !- Handle
  {d18bdd2e-5073-474e-9549-a8208cd68818}, !- Name
  {21366a4f-396e-403f-ba39-e7a786f69377}, !- Source Object
  11,                                     !- Outlet Port
  {a8e7338c-8dd7-47f4-b82e-356a07fa451b}, !- Target Object
  2;                                      !- Inlet Port

OS:PortList,
  {4ea39174-0839-4467-8be0-a11eed80442f}, !- Handle
  {c50977a6-2e24-4e4b-85e5-b711ac8a779d}, !- Name
  {21366a4f-396e-403f-ba39-e7a786f69377}; !- HVAC Component

OS:PortList,
  {67f6c231-13ac-422a-bfc6-2e392cbe6b3c}, !- Handle
  {0c63cd11-04fa-4c1d-9cf7-95b2d02abab3}, !- Name
  {21366a4f-396e-403f-ba39-e7a786f69377}; !- HVAC Component

OS:PortList,
  {2e93f9f7-b4af-4b26-9d17-dc20bdeacbb8}, !- Handle
  {e1b9c72f-9d71-4d8f-8635-05024c6c5982}, !- Name
  {21366a4f-396e-403f-ba39-e7a786f69377}; !- HVAC Component

OS:Sizing:Zone,
  {2aa9f458-c115-4ded-9aef-1521f9d262b2}, !- Handle
  {21366a4f-396e-403f-ba39-e7a786f69377}, !- Zone or ZoneList Name
  SupplyAirTemperature,                   !- Zone Cooling Design Supply Air Temperature Input Method
  14,                                     !- Zone Cooling Design Supply Air Temperature {C}
  11.11,                                  !- Zone Cooling Design Supply Air Temperature Difference {deltaC}
  SupplyAirTemperature,                   !- Zone Heating Design Supply Air Temperature Input Method
  40,                                     !- Zone Heating Design Supply Air Temperature {C}
  11.11,                                  !- Zone Heating Design Supply Air Temperature Difference {deltaC}
  0.0085,                                 !- Zone Cooling Design Supply Air Humidity Ratio {kg-H2O/kg-air}
  0.008,                                  !- Zone Heating Design Supply Air Humidity Ratio {kg-H2O/kg-air}
  ,                                       !- Zone Heating Sizing Factor
  ,                                       !- Zone Cooling Sizing Factor
  DesignDay,                              !- Cooling Design Air Flow Method
  ,                                       !- Cooling Design Air Flow Rate {m3/s}
  ,                                       !- Cooling Minimum Air Flow per Zone Floor Area {m3/s-m2}
  ,                                       !- Cooling Minimum Air Flow {m3/s}
  ,                                       !- Cooling Minimum Air Flow Fraction
  DesignDay,                              !- Heating Design Air Flow Method
  ,                                       !- Heating Design Air Flow Rate {m3/s}
  ,                                       !- Heating Maximum Air Flow per Zone Floor Area {m3/s-m2}
  ,                                       !- Heating Maximum Air Flow {m3/s}
  ,                                       !- Heating Maximum Air Flow Fraction
  ,                                       !- Design Zone Air Distribution Effectiveness in Cooling Mode
  ,                                       !- Design Zone Air Distribution Effectiveness in Heating Mode
  No,                                     !- Account for Dedicated Outdoor Air System
  NeutralSupplyAir,                       !- Dedicated Outdoor Air System Control Strategy
  autosize,                               !- Dedicated Outdoor Air Low Setpoint Temperature for Design {C}
  autosize;                               !- Dedicated Outdoor Air High Setpoint Temperature for Design {C}

OS:ZoneHVAC:EquipmentList,
  {b67d64c1-4b00-42bd-9d24-3d21eb24cf94}, !- Handle
  Zone HVAC Equipment List 1,             !- Name
  {21366a4f-396e-403f-ba39-e7a786f69377}; !- Thermal Zone

OS:ThermalZone,
  {c8764ee1-1b8b-454b-ba08-f037237538bc}, !- Handle
  garage zone,                            !- Name
  ,                                       !- Multiplier
  ,                                       !- Ceiling Height {m}
  ,                                       !- Volume {m3}
  ,                                       !- Floor Area {m2}
  ,                                       !- Zone Inside Convection Algorithm
  ,                                       !- Zone Outside Convection Algorithm
  ,                                       !- Zone Conditioning Equipment List Name
  {fc6e2ace-39f2-4548-a14e-63b7f0395705}, !- Zone Air Inlet Port List
  {5a3dc093-e62c-4d1e-8e9c-c9af4e789585}, !- Zone Air Exhaust Port List
  {a302f0e4-f5f3-40ce-baf7-250044c24179}, !- Zone Air Node Name
  {819003e3-7cd2-4acf-8701-fc8b54485b64}, !- Zone Return Air Port List
  ,                                       !- Primary Daylighting Control Name
  ,                                       !- Fraction of Zone Controlled by Primary Daylighting Control
  ,                                       !- Secondary Daylighting Control Name
  ,                                       !- Fraction of Zone Controlled by Secondary Daylighting Control
  ,                                       !- Illuminance Map Name
  ,                                       !- Group Rendering Name
  ,                                       !- Thermostat Name
  No;                                     !- Use Ideal Air Loads

OS:Node,
  {b0535c41-f585-4a93-9856-1dd3a20ddfbb}, !- Handle
  Node 2,                                 !- Name
  {a302f0e4-f5f3-40ce-baf7-250044c24179}, !- Inlet Port
  ;                                       !- Outlet Port

OS:Connection,
  {a302f0e4-f5f3-40ce-baf7-250044c24179}, !- Handle
  {7a794075-867d-4c88-9a84-c63c6340cc9f}, !- Name
  {c8764ee1-1b8b-454b-ba08-f037237538bc}, !- Source Object
  11,                                     !- Outlet Port
  {b0535c41-f585-4a93-9856-1dd3a20ddfbb}, !- Target Object
  2;                                      !- Inlet Port

OS:PortList,
  {fc6e2ace-39f2-4548-a14e-63b7f0395705}, !- Handle
  {c0f9dd87-8113-4c2a-81fc-524175d09978}, !- Name
  {c8764ee1-1b8b-454b-ba08-f037237538bc}; !- HVAC Component

OS:PortList,
  {5a3dc093-e62c-4d1e-8e9c-c9af4e789585}, !- Handle
  {0d9c0e31-3bf0-4ac2-9306-84598f50d017}, !- Name
  {c8764ee1-1b8b-454b-ba08-f037237538bc}; !- HVAC Component

OS:PortList,
  {819003e3-7cd2-4acf-8701-fc8b54485b64}, !- Handle
  {81fb0241-a5da-45d3-900c-0d69dc83936c}, !- Name
  {c8764ee1-1b8b-454b-ba08-f037237538bc}; !- HVAC Component

OS:Sizing:Zone,
  {f9808ee1-ed01-4e4d-868d-c9b18752bd8b}, !- Handle
  {c8764ee1-1b8b-454b-ba08-f037237538bc}, !- Zone or ZoneList Name
  SupplyAirTemperature,                   !- Zone Cooling Design Supply Air Temperature Input Method
  14,                                     !- Zone Cooling Design Supply Air Temperature {C}
  11.11,                                  !- Zone Cooling Design Supply Air Temperature Difference {deltaC}
  SupplyAirTemperature,                   !- Zone Heating Design Supply Air Temperature Input Method
  40,                                     !- Zone Heating Design Supply Air Temperature {C}
  11.11,                                  !- Zone Heating Design Supply Air Temperature Difference {deltaC}
  0.0085,                                 !- Zone Cooling Design Supply Air Humidity Ratio {kg-H2O/kg-air}
  0.008,                                  !- Zone Heating Design Supply Air Humidity Ratio {kg-H2O/kg-air}
  ,                                       !- Zone Heating Sizing Factor
  ,                                       !- Zone Cooling Sizing Factor
  DesignDay,                              !- Cooling Design Air Flow Method
  ,                                       !- Cooling Design Air Flow Rate {m3/s}
  ,                                       !- Cooling Minimum Air Flow per Zone Floor Area {m3/s-m2}
  ,                                       !- Cooling Minimum Air Flow {m3/s}
  ,                                       !- Cooling Minimum Air Flow Fraction
  DesignDay,                              !- Heating Design Air Flow Method
  ,                                       !- Heating Design Air Flow Rate {m3/s}
  ,                                       !- Heating Maximum Air Flow per Zone Floor Area {m3/s-m2}
  ,                                       !- Heating Maximum Air Flow {m3/s}
  ,                                       !- Heating Maximum Air Flow Fraction
  ,                                       !- Design Zone Air Distribution Effectiveness in Cooling Mode
  ,                                       !- Design Zone Air Distribution Effectiveness in Heating Mode
  No,                                     !- Account for Dedicated Outdoor Air System
  NeutralSupplyAir,                       !- Dedicated Outdoor Air System Control Strategy
  autosize,                               !- Dedicated Outdoor Air Low Setpoint Temperature for Design {C}
  autosize;                               !- Dedicated Outdoor Air High Setpoint Temperature for Design {C}

OS:ZoneHVAC:EquipmentList,
  {edb1dae8-63ba-42cb-b300-b4bef040db09}, !- Handle
  Zone HVAC Equipment List 2,             !- Name
  {c8764ee1-1b8b-454b-ba08-f037237538bc}; !- Thermal Zone

OS:Space,
  {b824fd8b-2d2e-4bed-98ab-055932a7bd09}, !- Handle
  garage space,                           !- Name
  {eada9ded-98c1-4a84-9270-6064a6be51a9}, !- Space Type Name
  ,                                       !- Default Construction Set Name
  ,                                       !- Default Schedule Set Name
  -0,                                     !- Direction of Relative North {deg}
  0,                                      !- X Origin {m}
  0,                                      !- Y Origin {m}
  0,                                      !- Z Origin {m}
  ,                                       !- Building Story Name
  {c8764ee1-1b8b-454b-ba08-f037237538bc}; !- Thermal Zone Name

OS:Surface,
  {4f420f96-fa42-4309-bcdf-3bf46faee1d2}, !- Handle
  Surface 1,                              !- Name
  Floor,                                  !- Surface Type
  ,                                       !- Construction Name
  {b824fd8b-2d2e-4bed-98ab-055932a7bd09}, !- Space Name
  Foundation,                             !- Outside Boundary Condition
  ,                                       !- Outside Boundary Condition Object
  NoSun,                                  !- Sun Exposure
  NoWind,                                 !- Wind Exposure
  ,                                       !- View Factor to Ground
  ,                                       !- Number of Vertices
  5.57695129776527, -3.048, 0,            !- X,Y,Z Vertex 1 {m}
  5.57695129776527, 3.048, 0,             !- X,Y,Z Vertex 2 {m}
  11.6729512977653, 3.048, 0,             !- X,Y,Z Vertex 3 {m}
  11.6729512977653, -3.048, 0;            !- X,Y,Z Vertex 4 {m}

OS:Surface,
  {2abce1e8-cfd8-4931-a3f4-805eeb0f1fa3}, !- Handle
  Surface 2,                              !- Name
  Wall,                                   !- Surface Type
  ,                                       !- Construction Name
  {b824fd8b-2d2e-4bed-98ab-055932a7bd09}, !- Space Name
  Surface,                                !- Outside Boundary Condition
  {2e03d0c7-e13a-4977-a907-f78bbc50c7cf}, !- Outside Boundary Condition Object
  NoSun,                                  !- Sun Exposure
  NoWind,                                 !- Wind Exposure
  ,                                       !- View Factor to Ground
  ,                                       !- Number of Vertices
  5.57695129776527, 3.048, 2.4384,        !- X,Y,Z Vertex 1 {m}
  5.57695129776527, 3.048, 0,             !- X,Y,Z Vertex 2 {m}
  5.57695129776527, 0, 0,                 !- X,Y,Z Vertex 3 {m}
  5.57695129776527, 0, 2.4384;            !- X,Y,Z Vertex 4 {m}

OS:Surface,
  {5bf001a8-7eb2-47a2-8cea-617a1fa31e9a}, !- Handle
  Surface 3,                              !- Name
  Wall,                                   !- Surface Type
  ,                                       !- Construction Name
  {b824fd8b-2d2e-4bed-98ab-055932a7bd09}, !- Space Name
  Surface,                                !- Outside Boundary Condition
  {d00f44c7-f563-46db-b061-0e0d4cc1adff}, !- Outside Boundary Condition Object
  NoSun,                                  !- Sun Exposure
  NoWind,                                 !- Wind Exposure
  ,                                       !- View Factor to Ground
  ,                                       !- Number of Vertices
  11.6729512977653, 3.048, 2.4384,        !- X,Y,Z Vertex 1 {m}
  11.6729512977653, 3.048, 0,             !- X,Y,Z Vertex 2 {m}
  5.57695129776527, 3.048, 0,             !- X,Y,Z Vertex 3 {m}
  5.57695129776527, 3.048, 2.4384;        !- X,Y,Z Vertex 4 {m}

OS:Surface,
  {d45cb6b9-607b-4583-9738-ee059f099ff4}, !- Handle
  Surface 4,                              !- Name
  Wall,                                   !- Surface Type
  ,                                       !- Construction Name
  {b824fd8b-2d2e-4bed-98ab-055932a7bd09}, !- Space Name
  Outdoors,                               !- Outside Boundary Condition
  ,                                       !- Outside Boundary Condition Object
  SunExposed,                             !- Sun Exposure
  WindExposed,                            !- Wind Exposure
  ,                                       !- View Factor to Ground
  ,                                       !- Number of Vertices
  11.6729512977653, -3.048, 2.4384,       !- X,Y,Z Vertex 1 {m}
  11.6729512977653, -3.048, 0,            !- X,Y,Z Vertex 2 {m}
  11.6729512977653, 3.048, 0,             !- X,Y,Z Vertex 3 {m}
  11.6729512977653, 3.048, 2.4384;        !- X,Y,Z Vertex 4 {m}

OS:Surface,
  {9cc6ce5a-490c-424d-9b96-eb1be0b1417e}, !- Handle
  Surface 5,                              !- Name
  Wall,                                   !- Surface Type
  ,                                       !- Construction Name
  {b824fd8b-2d2e-4bed-98ab-055932a7bd09}, !- Space Name
  Outdoors,                               !- Outside Boundary Condition
  ,                                       !- Outside Boundary Condition Object
  SunExposed,                             !- Sun Exposure
  WindExposed,                            !- Wind Exposure
  ,                                       !- View Factor to Ground
  ,                                       !- Number of Vertices
  5.57695129776527, -3.048, 2.4384,       !- X,Y,Z Vertex 1 {m}
  5.57695129776527, -3.048, 0,            !- X,Y,Z Vertex 2 {m}
  11.6729512977653, -3.048, 0,            !- X,Y,Z Vertex 3 {m}
  11.6729512977653, -3.048, 2.4384;       !- X,Y,Z Vertex 4 {m}

OS:Surface,
  {4e483ff8-9910-4739-8962-795c0a094225}, !- Handle
  Surface 6,                              !- Name
  RoofCeiling,                            !- Surface Type
  ,                                       !- Construction Name
  {b824fd8b-2d2e-4bed-98ab-055932a7bd09}, !- Space Name
  Surface,                                !- Outside Boundary Condition
  {e147dabe-e0d2-4d02-86c2-892b46cfc598}, !- Outside Boundary Condition Object
  NoSun,                                  !- Sun Exposure
  NoWind,                                 !- Wind Exposure
  ,                                       !- View Factor to Ground
  ,                                       !- Number of Vertices
  11.6729512977653, -3.048, 2.4384,       !- X,Y,Z Vertex 1 {m}
  11.6729512977653, 3.048, 2.4384,        !- X,Y,Z Vertex 2 {m}
  5.57695129776527, 3.048, 2.4384,        !- X,Y,Z Vertex 3 {m}
  5.57695129776527, -3.048, 2.4384;       !- X,Y,Z Vertex 4 {m}

OS:SpaceType,
  {eada9ded-98c1-4a84-9270-6064a6be51a9}, !- Handle
  Space Type 1,                           !- Name
  ,                                       !- Default Construction Set Name
  ,                                       !- Default Schedule Set Name
  ,                                       !- Group Rendering Name
  ,                                       !- Design Specification Outdoor Air Object Name
  ,                                       !- Standards Building Type
  garage;                                 !- Standards Space Type

OS:Space,
  {0f47f684-f36e-4545-a6e5-04ca72938027}, !- Handle
  living space,                           !- Name
  {1b1cfac3-870a-439a-b888-9e5515b48b2a}, !- Space Type Name
  ,                                       !- Default Construction Set Name
  ,                                       !- Default Schedule Set Name
  -0,                                     !- Direction of Relative North {deg}
  0,                                      !- X Origin {m}
  0,                                      !- Y Origin {m}
  0,                                      !- Z Origin {m}
  ,                                       !- Building Story Name
  {21366a4f-396e-403f-ba39-e7a786f69377}, !- Thermal Zone Name
  ,                                       !- Part of Total Floor Area
  ,                                       !- Design Specification Outdoor Air Object Name
  {0de9aea6-bd68-4c79-9c2c-a866e9acbb51}; !- Building Unit Name

OS:Surface,
  {bdee6907-baf3-4256-baf7-7e04426e6c23}, !- Handle
  Surface 7,                              !- Name
  Floor,                                  !- Surface Type
  ,                                       !- Construction Name
  {0f47f684-f36e-4545-a6e5-04ca72938027}, !- Space Name
  Surface,                                !- Outside Boundary Condition
  {e7b152d7-55f8-4bec-a80e-245d28e062b3}, !- Outside Boundary Condition Object
  NoSun,                                  !- Sun Exposure
  NoWind,                                 !- Wind Exposure
  ,                                       !- View Factor to Ground
  ,                                       !- Number of Vertices
  0, 0, 0,                                !- X,Y,Z Vertex 1 {m}
  0, 5.83647564888264, 0,                 !- X,Y,Z Vertex 2 {m}
  11.6729512977653, 5.83647564888264, 0,  !- X,Y,Z Vertex 3 {m}
  11.6729512977653, 3.048, 0,             !- X,Y,Z Vertex 4 {m}
  5.57695129776527, 3.048, 0,             !- X,Y,Z Vertex 5 {m}
  5.57695129776527, 0, 0;                 !- X,Y,Z Vertex 6 {m}

OS:Surface,
  {8408f132-17ca-49c5-9030-7127f93b3941}, !- Handle
  Surface 8,                              !- Name
  Wall,                                   !- Surface Type
  ,                                       !- Construction Name
  {0f47f684-f36e-4545-a6e5-04ca72938027}, !- Space Name
  Outdoors,                               !- Outside Boundary Condition
  ,                                       !- Outside Boundary Condition Object
  SunExposed,                             !- Sun Exposure
  WindExposed,                            !- Wind Exposure
  ,                                       !- View Factor to Ground
  ,                                       !- Number of Vertices
  0, 5.83647564888264, 2.4384,            !- X,Y,Z Vertex 1 {m}
  0, 5.83647564888264, 0,                 !- X,Y,Z Vertex 2 {m}
  0, 0, 0,                                !- X,Y,Z Vertex 3 {m}
  0, 0, 2.4384;                           !- X,Y,Z Vertex 4 {m}

OS:Surface,
  {88eb929f-862d-4387-816b-de014c6b95e7}, !- Handle
  Surface 9,                              !- Name
  Wall,                                   !- Surface Type
  ,                                       !- Construction Name
  {0f47f684-f36e-4545-a6e5-04ca72938027}, !- Space Name
  Outdoors,                               !- Outside Boundary Condition
  ,                                       !- Outside Boundary Condition Object
  SunExposed,                             !- Sun Exposure
  WindExposed,                            !- Wind Exposure
  ,                                       !- View Factor to Ground
  ,                                       !- Number of Vertices
  11.6729512977653, 5.83647564888264, 2.4384, !- X,Y,Z Vertex 1 {m}
  11.6729512977653, 5.83647564888264, 0,  !- X,Y,Z Vertex 2 {m}
  0, 5.83647564888264, 0,                 !- X,Y,Z Vertex 3 {m}
  0, 5.83647564888264, 2.4384;            !- X,Y,Z Vertex 4 {m}

OS:Surface,
  {45158aa3-0a5e-4d03-9424-2790d1dc2ba4}, !- Handle
  Surface 10,                             !- Name
  Wall,                                   !- Surface Type
  ,                                       !- Construction Name
  {0f47f684-f36e-4545-a6e5-04ca72938027}, !- Space Name
  Outdoors,                               !- Outside Boundary Condition
  ,                                       !- Outside Boundary Condition Object
  SunExposed,                             !- Sun Exposure
  WindExposed,                            !- Wind Exposure
  ,                                       !- View Factor to Ground
  ,                                       !- Number of Vertices
  11.6729512977653, 3.048, 2.4384,        !- X,Y,Z Vertex 1 {m}
  11.6729512977653, 3.048, 0,             !- X,Y,Z Vertex 2 {m}
  11.6729512977653, 5.83647564888264, 0,  !- X,Y,Z Vertex 3 {m}
  11.6729512977653, 5.83647564888264, 2.4384; !- X,Y,Z Vertex 4 {m}

OS:Surface,
  {d00f44c7-f563-46db-b061-0e0d4cc1adff}, !- Handle
  Surface 11,                             !- Name
  Wall,                                   !- Surface Type
  ,                                       !- Construction Name
  {0f47f684-f36e-4545-a6e5-04ca72938027}, !- Space Name
  Surface,                                !- Outside Boundary Condition
  {5bf001a8-7eb2-47a2-8cea-617a1fa31e9a}, !- Outside Boundary Condition Object
  NoSun,                                  !- Sun Exposure
  NoWind,                                 !- Wind Exposure
  ,                                       !- View Factor to Ground
  ,                                       !- Number of Vertices
  5.57695129776527, 3.048, 2.4384,        !- X,Y,Z Vertex 1 {m}
  5.57695129776527, 3.048, 0,             !- X,Y,Z Vertex 2 {m}
  11.6729512977653, 3.048, 0,             !- X,Y,Z Vertex 3 {m}
  11.6729512977653, 3.048, 2.4384;        !- X,Y,Z Vertex 4 {m}

OS:Surface,
  {2e03d0c7-e13a-4977-a907-f78bbc50c7cf}, !- Handle
  Surface 12,                             !- Name
  Wall,                                   !- Surface Type
  ,                                       !- Construction Name
  {0f47f684-f36e-4545-a6e5-04ca72938027}, !- Space Name
  Surface,                                !- Outside Boundary Condition
  {2abce1e8-cfd8-4931-a3f4-805eeb0f1fa3}, !- Outside Boundary Condition Object
  NoSun,                                  !- Sun Exposure
  NoWind,                                 !- Wind Exposure
  ,                                       !- View Factor to Ground
  ,                                       !- Number of Vertices
  5.57695129776527, 0, 2.4384,            !- X,Y,Z Vertex 1 {m}
  5.57695129776527, 0, 0,                 !- X,Y,Z Vertex 2 {m}
  5.57695129776527, 3.048, 0,             !- X,Y,Z Vertex 3 {m}
  5.57695129776527, 3.048, 2.4384;        !- X,Y,Z Vertex 4 {m}

OS:Surface,
  {204ec8d2-c1d1-4fd9-89b3-181e464ccc97}, !- Handle
  Surface 13,                             !- Name
  Wall,                                   !- Surface Type
  ,                                       !- Construction Name
  {0f47f684-f36e-4545-a6e5-04ca72938027}, !- Space Name
  Outdoors,                               !- Outside Boundary Condition
  ,                                       !- Outside Boundary Condition Object
  SunExposed,                             !- Sun Exposure
  WindExposed,                            !- Wind Exposure
  ,                                       !- View Factor to Ground
  ,                                       !- Number of Vertices
  0, 0, 2.4384,                           !- X,Y,Z Vertex 1 {m}
  0, 0, 0,                                !- X,Y,Z Vertex 2 {m}
  5.57695129776527, 0, 0,                 !- X,Y,Z Vertex 3 {m}
  5.57695129776527, 0, 2.4384;            !- X,Y,Z Vertex 4 {m}

OS:Surface,
  {af525a22-66eb-497b-b84d-fb70c440d530}, !- Handle
  Surface 14,                             !- Name
  RoofCeiling,                            !- Surface Type
  ,                                       !- Construction Name
  {0f47f684-f36e-4545-a6e5-04ca72938027}, !- Space Name
  Surface,                                !- Outside Boundary Condition