!- NOTE: Auto-generated from /test/osw_files/SFD_2000sqft_2story_FB_GRG_UA_3Beds_2Baths.osw

OS:Version,
  {75e39be5-08fa-4eee-9be6-61a424267d62}, !- Handle
  2.5.1;                                  !- Version Identifier

OS:Building,
  {8c9e7bbb-fe50-4787-85a8-b85ba8650a16}, !- Handle
  Building 1,                             !- Name
  ,                                       !- Building Sector Type
  0,                                      !- North Axis {deg}
  ,                                       !- Nominal Floor to Floor Height {m}
  ,                                       !- Space Type Name
  ,                                       !- Default Construction Set Name
  ,                                       !- Default Schedule Set Name
  3,                                      !- Standards Number of Stories
  2,                                      !- Standards Number of Above Ground Stories
  singlefamilydetached,                   !- Standards Building Type
  1;                                      !- Standards Number of Living Units

OS:Facility,
  {01e437bb-4dd7-4c40-aa92-788a01d3fd64}; !- Handle

OS:Site,
  {d9893c36-70e2-4255-89c5-afa0bc5ce54a}, !- Handle
  Site 1,                                 !- Name
  ,                                       !- Latitude {deg}
  ,                                       !- Longitude {deg}
  ,                                       !- Time Zone {hr}
  ,                                       !- Elevation {m}
  ;                                       !- Terrain

OS:SimulationControl,
  {5697fc08-07df-418d-a50e-aec075baba1b}; !- Handle

OS:Sizing:Parameters,
  {22ec8fa4-36a7-40c3-a202-a679c15e48de}, !- Handle
  1.25,                                   !- Heating Sizing Factor
  1.15;                                   !- Cooling Sizing Factor

OS:Timestep,
  {531c2c50-f4fa-4081-8f54-6fe00b7de897}, !- Handle
  6;                                      !- Number of Timesteps per Hour

OS:ShadowCalculation,
  {c7aa981a-b7cd-4112-9193-0f4f86f40791}, !- Handle
  20,                                     !- Calculation Frequency
  15000;                                  !- Maximum Figures in Shadow Overlap Calculations

OS:HeatBalanceAlgorithm,
  {234776c2-58a9-4b10-8a09-4024877e6c2a}, !- Handle
  ConductionTransferFunction,             !- Algorithm
  200;                                    !- Surface Temperature Upper Limit {C}

OS:RunPeriod,
  {3afb526f-dc63-4afd-b116-8c6511e151b7}, !- Handle
  Run Period 1,                           !- Name
  1,                                      !- Begin Month
  1,                                      !- Begin Day of Month
  12,                                     !- End Month
  31,                                     !- End Day of Month
  ,                                       !- Use Weather File Holidays and Special Days
  ,                                       !- Use Weather File Daylight Saving Period
  ,                                       !- Apply Weekend Holiday Rule
  ,                                       !- Use Weather File Rain Indicators
  ,                                       !- Use Weather File Snow Indicators
  ;                                       !- Number of Times Runperiod to be Repeated

OS:LifeCycleCost:Parameters,
  {f2b78e6d-b2bc-4459-9437-8bb1a97a63ca}, !- Handle
  ,                                       !- Analysis Type
  ,                                       !- Discounting Convention
  ,                                       !- Inflation Approach
  ,                                       !- Real Discount Rate
  ,                                       !- Nominal Discount Rate
  ,                                       !- Inflation
  ,                                       !- Base Date Month
  ,                                       !- Base Date Year
  ,                                       !- Service Date Month
  ,                                       !- Service Date Year
  ;                                       !- Length of Study Period in Years

OS:ThermalZone,
  {85a3b3fd-e6d1-4144-9f90-24e6811c5f32}, !- Handle
  living zone,                            !- Name
  ,                                       !- Multiplier
  ,                                       !- Ceiling Height {m}
  ,                                       !- Volume {m3}
  ,                                       !- Floor Area {m2}
  ,                                       !- Zone Inside Convection Algorithm
  ,                                       !- Zone Outside Convection Algorithm
  ,                                       !- Zone Conditioning Equipment List Name
  {94131328-88ae-4299-8c15-f4d34fae14e3}, !- Zone Air Inlet Port List
  {ecafc329-fd33-469f-a75e-84904d07747d}, !- Zone Air Exhaust Port List
  {dd18f7c7-4702-4572-8193-638d56b92c21}, !- Zone Air Node Name
  ,                                       !- Zone Return Air Node Name
  ,                                       !- Primary Daylighting Control Name
  ,                                       !- Fraction of Zone Controlled by Primary Daylighting Control
  ,                                       !- Secondary Daylighting Control Name
  ,                                       !- Fraction of Zone Controlled by Secondary Daylighting Control
  ,                                       !- Illuminance Map Name
  ,                                       !- Group Rendering Name
  ,                                       !- Thermostat Name
  No;                                     !- Use Ideal Air Loads

OS:Node,
  {5e652c64-6f26-48dd-a1a8-3e65a531916e}, !- Handle
  Node 1,                                 !- Name
  {dd18f7c7-4702-4572-8193-638d56b92c21}, !- Inlet Port
  ;                                       !- Outlet Port

OS:Connection,
  {dd18f7c7-4702-4572-8193-638d56b92c21}, !- Handle
  {69243dc6-5872-407c-b9cf-e15a16a60155}, !- Name
  {85a3b3fd-e6d1-4144-9f90-24e6811c5f32}, !- Source Object
  11,                                     !- Outlet Port
  {5e652c64-6f26-48dd-a1a8-3e65a531916e}, !- Target Object
  2;                                      !- Inlet Port

OS:PortList,
  {94131328-88ae-4299-8c15-f4d34fae14e3}, !- Handle
  {b0819d75-58a7-44d1-bc11-9c2e2a8592ac}, !- Name
  {85a3b3fd-e6d1-4144-9f90-24e6811c5f32}; !- HVAC Component

OS:PortList,
  {ecafc329-fd33-469f-a75e-84904d07747d}, !- Handle
  {b7900208-af2b-43ce-967a-6883df35a5b6}, !- Name
  {85a3b3fd-e6d1-4144-9f90-24e6811c5f32}; !- HVAC Component

OS:Sizing:Zone,
  {c6139640-1937-43c6-ae08-f3ad1c06ebec}, !- Handle
  {85a3b3fd-e6d1-4144-9f90-24e6811c5f32}, !- Zone or ZoneList Name
  SupplyAirTemperature,                   !- Zone Cooling Design Supply Air Temperature Input Method
  14,                                     !- Zone Cooling Design Supply Air Temperature {C}
  11.11,                                  !- Zone Cooling Design Supply Air Temperature Difference {deltaC}
  SupplyAirTemperature,                   !- Zone Heating Design Supply Air Temperature Input Method
  40,                                     !- Zone Heating Design Supply Air Temperature {C}
  11.11,                                  !- Zone Heating Design Supply Air Temperature Difference {deltaC}
  0.0085,                                 !- Zone Cooling Design Supply Air Humidity Ratio {kg-H2O/kg-air}
  0.008,                                  !- Zone Heating Design Supply Air Humidity Ratio {kg-H2O/kg-air}
  ,                                       !- Zone Heating Sizing Factor
  ,                                       !- Zone Cooling Sizing Factor
  DesignDay,                              !- Cooling Design Air Flow Method
  ,                                       !- Cooling Design Air Flow Rate {m3/s}
  ,                                       !- Cooling Minimum Air Flow per Zone Floor Area {m3/s-m2}
  ,                                       !- Cooling Minimum Air Flow {m3/s}
  ,                                       !- Cooling Minimum Air Flow Fraction
  DesignDay,                              !- Heating Design Air Flow Method
  ,                                       !- Heating Design Air Flow Rate {m3/s}
  ,                                       !- Heating Maximum Air Flow per Zone Floor Area {m3/s-m2}
  ,                                       !- Heating Maximum Air Flow {m3/s}
  ,                                       !- Heating Maximum Air Flow Fraction
  ,                                       !- Design Zone Air Distribution Effectiveness in Cooling Mode
  ,                                       !- Design Zone Air Distribution Effectiveness in Heating Mode
  No,                                     !- Account for Dedicated Outdoor Air System
  NeutralSupplyAir,                       !- Dedicated Outdoor Air System Control Strategy
  autosize,                               !- Dedicated Outdoor Air Low Setpoint Temperature for Design {C}
  autosize;                               !- Dedicated Outdoor Air High Setpoint Temperature for Design {C}

OS:ZoneHVAC:EquipmentList,
  {33f0c2de-8b48-4ee6-88c6-0ff42be67aef}, !- Handle
  Zone HVAC Equipment List 1,             !- Name
  {85a3b3fd-e6d1-4144-9f90-24e6811c5f32}; !- Thermal Zone

OS:ThermalZone,
  {f5aaaeff-bd41-45e8-ab40-eed7336f3318}, !- Handle
  garage zone,                            !- Name
  ,                                       !- Multiplier
  ,                                       !- Ceiling Height {m}
  ,                                       !- Volume {m3}
  ,                                       !- Floor Area {m2}
  ,                                       !- Zone Inside Convection Algorithm
  ,                                       !- Zone Outside Convection Algorithm
  ,                                       !- Zone Conditioning Equipment List Name
  {f3c05b7f-887a-4111-ad4e-6ca3d98f5127}, !- Zone Air Inlet Port List
  {cad01d3b-a85d-4bd4-b10e-0ce923309d51}, !- Zone Air Exhaust Port List
  {9245a528-4db0-4d1b-a698-d625dc8e988c}, !- Zone Air Node Name
  ,                                       !- Zone Return Air Node Name
  ,                                       !- Primary Daylighting Control Name
  ,                                       !- Fraction of Zone Controlled by Primary Daylighting Control
  ,                                       !- Secondary Daylighting Control Name
  ,                                       !- Fraction of Zone Controlled by Secondary Daylighting Control
  ,                                       !- Illuminance Map Name
  ,                                       !- Group Rendering Name
  ,                                       !- Thermostat Name
  No;                                     !- Use Ideal Air Loads

OS:Node,
  {44dea471-b4ae-4378-aa14-b60057b0e47b}, !- Handle
  Node 2,                                 !- Name
  {9245a528-4db0-4d1b-a698-d625dc8e988c}, !- Inlet Port
  ;                                       !- Outlet Port

OS:Connection,
  {9245a528-4db0-4d1b-a698-d625dc8e988c}, !- Handle
  {4f3ddc00-6201-4547-b171-b06e8d548d54}, !- Name
  {f5aaaeff-bd41-45e8-ab40-eed7336f3318}, !- Source Object
  11,                                     !- Outlet Port
  {44dea471-b4ae-4378-aa14-b60057b0e47b}, !- Target Object
  2;                                      !- Inlet Port

OS:PortList,
  {f3c05b7f-887a-4111-ad4e-6ca3d98f5127}, !- Handle
  {c4d52757-cb92-405b-b1bc-c7e45f10d74f}, !- Name
  {f5aaaeff-bd41-45e8-ab40-eed7336f3318}; !- HVAC Component

OS:PortList,
  {cad01d3b-a85d-4bd4-b10e-0ce923309d51}, !- Handle
  {8a409b30-afb8-45ce-b78c-f7c273560327}, !- Name
  {f5aaaeff-bd41-45e8-ab40-eed7336f3318}; !- HVAC Component

OS:Sizing:Zone,
  {1f1fc173-b42f-4c52-b277-dc4090b98f2d}, !- Handle
  {f5aaaeff-bd41-45e8-ab40-eed7336f3318}, !- Zone or ZoneList Name
  SupplyAirTemperature,                   !- Zone Cooling Design Supply Air Temperature Input Method
  14,                                     !- Zone Cooling Design Supply Air Temperature {C}
  11.11,                                  !- Zone Cooling Design Supply Air Temperature Difference {deltaC}
  SupplyAirTemperature,                   !- Zone Heating Design Supply Air Temperature Input Method
  40,                                     !- Zone Heating Design Supply Air Temperature {C}
  11.11,                                  !- Zone Heating Design Supply Air Temperature Difference {deltaC}
  0.0085,                                 !- Zone Cooling Design Supply Air Humidity Ratio {kg-H2O/kg-air}
  0.008,                                  !- Zone Heating Design Supply Air Humidity Ratio {kg-H2O/kg-air}
  ,                                       !- Zone Heating Sizing Factor
  ,                                       !- Zone Cooling Sizing Factor
  DesignDay,                              !- Cooling Design Air Flow Method
  ,                                       !- Cooling Design Air Flow Rate {m3/s}
  ,                                       !- Cooling Minimum Air Flow per Zone Floor Area {m3/s-m2}
  ,                                       !- Cooling Minimum Air Flow {m3/s}
  ,                                       !- Cooling Minimum Air Flow Fraction
  DesignDay,                              !- Heating Design Air Flow Method
  ,                                       !- Heating Design Air Flow Rate {m3/s}
  ,                                       !- Heating Maximum Air Flow per Zone Floor Area {m3/s-m2}
  ,                                       !- Heating Maximum Air Flow {m3/s}
  ,                                       !- Heating Maximum Air Flow Fraction
  ,                                       !- Design Zone Air Distribution Effectiveness in Cooling Mode
  ,                                       !- Design Zone Air Distribution Effectiveness in Heating Mode
  No,                                     !- Account for Dedicated Outdoor Air System
  NeutralSupplyAir,                       !- Dedicated Outdoor Air System Control Strategy
  autosize,                               !- Dedicated Outdoor Air Low Setpoint Temperature for Design {C}
  autosize;                               !- Dedicated Outdoor Air High Setpoint Temperature for Design {C}

OS:ZoneHVAC:EquipmentList,
  {a964a05a-e427-4300-87c9-2f6a6e3c8cbe}, !- Handle
  Zone HVAC Equipment List 2,             !- Name
  {f5aaaeff-bd41-45e8-ab40-eed7336f3318}; !- Thermal Zone

OS:Space,
  {18ea405a-53a6-4930-ad3a-e6b569dea82c}, !- Handle
  garage space,                           !- Name
  {edc3bc04-35ef-46d6-9697-9563d8d2fe6c}, !- Space Type Name
  ,                                       !- Default Construction Set Name
  ,                                       !- Default Schedule Set Name
  -0,                                     !- Direction of Relative North {deg}
  0,                                      !- X Origin {m}
  0,                                      !- Y Origin {m}
  0,                                      !- Z Origin {m}
  ,                                       !- Building Story Name
  {f5aaaeff-bd41-45e8-ab40-eed7336f3318}; !- Thermal Zone Name

OS:Surface,
  {41d49561-a17c-4db8-9e0e-549668e00e0c}, !- Handle
  Surface 1,                              !- Name
  Floor,                                  !- Surface Type
  ,                                       !- Construction Name
  {18ea405a-53a6-4930-ad3a-e6b569dea82c}, !- Space Name
  Foundation,                             !- Outside Boundary Condition
  ,                                       !- Outside Boundary Condition Object
  NoSun,                                  !- Sun Exposure
  NoWind,                                 !- Wind Exposure
  ,                                       !- View Factor to Ground
  ,                                       !- Number of Vertices
  5.57695129776527, -3.048, 0,            !- X,Y,Z Vertex 1 {m}
  5.57695129776527, 3.048, 0,             !- X,Y,Z Vertex 2 {m}
  11.6729512977653, 3.048, 0,             !- X,Y,Z Vertex 3 {m}
  11.6729512977653, -3.048, 0;            !- X,Y,Z Vertex 4 {m}

OS:Surface,
  {ee03650e-5099-46d7-87ae-47e098656c39}, !- Handle
  Surface 2,                              !- Name
  Wall,                                   !- Surface Type
  ,                                       !- Construction Name
  {18ea405a-53a6-4930-ad3a-e6b569dea82c}, !- Space Name
  Surface,                                !- Outside Boundary Condition
  {03af6936-3ff3-42e9-8792-9f11a7f4d1e9}, !- Outside Boundary Condition Object
  NoSun,                                  !- Sun Exposure
  NoWind,                                 !- Wind Exposure
  ,                                       !- View Factor to Ground
  ,                                       !- Number of Vertices
  5.57695129776527, 3.048, 2.4384,        !- X,Y,Z Vertex 1 {m}
  5.57695129776527, 3.048, 0,             !- X,Y,Z Vertex 2 {m}
  5.57695129776527, 0, 0,                 !- X,Y,Z Vertex 3 {m}
  5.57695129776527, 0, 2.4384;            !- X,Y,Z Vertex 4 {m}

OS:Surface,
  {738657e9-5195-4b50-907b-6096078ab08b}, !- Handle
  Surface 3,                              !- Name
  Wall,                                   !- Surface Type
  ,                                       !- Construction Name
  {18ea405a-53a6-4930-ad3a-e6b569dea82c}, !- Space Name
  Surface,                                !- Outside Boundary Condition
  {2fccbdd1-943b-42db-a5b1-442ade177033}, !- Outside Boundary Condition Object
  NoSun,                                  !- Sun Exposure
  NoWind,                                 !- Wind Exposure
  ,                                       !- View Factor to Ground
  ,                                       !- Number of Vertices
  11.6729512977653, 3.048, 2.4384,        !- X,Y,Z Vertex 1 {m}
  11.6729512977653, 3.048, 0,             !- X,Y,Z Vertex 2 {m}
  5.57695129776527, 3.048, 0,             !- X,Y,Z Vertex 3 {m}
  5.57695129776527, 3.048, 2.4384;        !- X,Y,Z Vertex 4 {m}

OS:Surface,
  {331d2f41-9712-4342-a5c7-3ef7d4061de8}, !- Handle
  Surface 4,                              !- Name
  Wall,                                   !- Surface Type
  ,                                       !- Construction Name
  {18ea405a-53a6-4930-ad3a-e6b569dea82c}, !- Space Name
  Outdoors,                               !- Outside Boundary Condition
  ,                                       !- Outside Boundary Condition Object
  SunExposed,                             !- Sun Exposure
  WindExposed,                            !- Wind Exposure
  ,                                       !- View Factor to Ground
  ,                                       !- Number of Vertices
  11.6729512977653, -3.048, 2.4384,       !- X,Y,Z Vertex 1 {m}
  11.6729512977653, -3.048, 0,            !- X,Y,Z Vertex 2 {m}
  11.6729512977653, 3.048, 0,             !- X,Y,Z Vertex 3 {m}
  11.6729512977653, 3.048, 2.4384;        !- X,Y,Z Vertex 4 {m}

OS:Surface,
  {05ed45a1-87d4-4709-8cc8-cdf2a1f236ca}, !- Handle
  Surface 5,                              !- Name
  Wall,                                   !- Surface Type
  ,                                       !- Construction Name
  {18ea405a-53a6-4930-ad3a-e6b569dea82c}, !- Space Name
  Outdoors,                               !- Outside Boundary Condition
  ,                                       !- Outside Boundary Condition Object
  SunExposed,                             !- Sun Exposure
  WindExposed,                            !- Wind Exposure
  ,                                       !- View Factor to Ground
  ,                                       !- Number of Vertices
  5.57695129776527, -3.048, 2.4384,       !- X,Y,Z Vertex 1 {m}
  5.57695129776527, -3.048, 0,            !- X,Y,Z Vertex 2 {m}
  11.6729512977653, -3.048, 0,            !- X,Y,Z Vertex 3 {m}
  11.6729512977653, -3.048, 2.4384;       !- X,Y,Z Vertex 4 {m}

OS:Surface,
  {21c3e587-88dc-48e9-bbfb-e2bcfe626cd6}, !- Handle
  Surface 6,                              !- Name
  RoofCeiling,                            !- Surface Type
  ,                                       !- Construction Name
  {18ea405a-53a6-4930-ad3a-e6b569dea82c}, !- Space Name
  Surface,                                !- Outside Boundary Condition
  {c5231ec9-faa4-4230-98fe-defe00b19fa1}, !- Outside Boundary Condition Object
  NoSun,                                  !- Sun Exposure
  NoWind,                                 !- Wind Exposure
  ,                                       !- View Factor to Ground
  ,                                       !- Number of Vertices
  11.6729512977653, -3.048, 2.4384,       !- X,Y,Z Vertex 1 {m}
  11.6729512977653, 3.048, 2.4384,        !- X,Y,Z Vertex 2 {m}
  5.57695129776527, 3.048, 2.4384,        !- X,Y,Z Vertex 3 {m}
  5.57695129776527, -3.048, 2.4384;       !- X,Y,Z Vertex 4 {m}

OS:SpaceType,
  {edc3bc04-35ef-46d6-9697-9563d8d2fe6c}, !- Handle
  Space Type 1,                           !- Name
  ,                                       !- Default Construction Set Name
  ,                                       !- Default Schedule Set Name
  ,                                       !- Group Rendering Name
  ,                                       !- Design Specification Outdoor Air Object Name
  ,                                       !- Standards Building Type
  garage;                                 !- Standards Space Type

OS:Space,
  {858a412d-bd23-4566-8834-deae7c56af7a}, !- Handle
  living space,                           !- Name
  {703990db-4c5b-4eca-a448-3e144e96b69e}, !- Space Type Name
  ,                                       !- Default Construction Set Name
  ,                                       !- Default Schedule Set Name
  -0,                                     !- Direction of Relative North {deg}
  0,                                      !- X Origin {m}
  0,                                      !- Y Origin {m}
  0,                                      !- Z Origin {m}
  ,                                       !- Building Story Name
  {85a3b3fd-e6d1-4144-9f90-24e6811c5f32}, !- Thermal Zone Name
  ,                                       !- Part of Total Floor Area
  ,                                       !- Design Specification Outdoor Air Object Name
  {4dcfbf5d-9d15-4f38-ac64-745484aee6be}; !- Building Unit Name

OS:Surface,
  {137828b3-6eec-46e8-8612-f745cc69e23f}, !- Handle
  Surface 7,                              !- Name
  Floor,                                  !- Surface Type
  ,                                       !- Construction Name
  {858a412d-bd23-4566-8834-deae7c56af7a}, !- Space Name
  Surface,                                !- Outside Boundary Condition
  {8f17b8e9-a3ab-4d1c-8999-bf192d7bb4f7}, !- Outside Boundary Condition Object
  NoSun,                                  !- Sun Exposure
  NoWind,                                 !- Wind Exposure
  ,                                       !- View Factor to Ground
  ,                                       !- Number of Vertices
  0, 0, 0,                                !- X,Y,Z Vertex 1 {m}
  0, 5.83647564888264, 0,                 !- X,Y,Z Vertex 2 {m}
  11.6729512977653, 5.83647564888264, 0,  !- X,Y,Z Vertex 3 {m}
  11.6729512977653, 3.048, 0,             !- X,Y,Z Vertex 4 {m}
  5.57695129776527, 3.048, 0,             !- X,Y,Z Vertex 5 {m}
  5.57695129776527, 0, 0;                 !- X,Y,Z Vertex 6 {m}

OS:Surface,
  {9faeb670-2c0b-435f-812c-14bd8c7ebb7d}, !- Handle
  Surface 8,                              !- Name
  Wall,                                   !- Surface Type
  ,                                       !- Construction Name
  {858a412d-bd23-4566-8834-deae7c56af7a}, !- Space Name
  Outdoors,                               !- Outside Boundary Condition
  ,                                       !- Outside Boundary Condition Object
  SunExposed,                             !- Sun Exposure
  WindExposed,                            !- Wind Exposure
  ,                                       !- View Factor to Ground
  ,                                       !- Number of Vertices
  0, 5.83647564888264, 2.4384,            !- X,Y,Z Vertex 1 {m}
  0, 5.83647564888264, 0,                 !- X,Y,Z Vertex 2 {m}
  0, 0, 0,                                !- X,Y,Z Vertex 3 {m}
  0, 0, 2.4384;                           !- X,Y,Z Vertex 4 {m}

OS:Surface,
  {f63bc8b4-38ce-4344-a51e-ea6ba64c76fb}, !- Handle
  Surface 9,                              !- Name
  Wall,                                   !- Surface Type
  ,                                       !- Construction Name
  {858a412d-bd23-4566-8834-deae7c56af7a}, !- Space Name
  Outdoors,                               !- Outside Boundary Condition
  ,                                       !- Outside Boundary Condition Object
  SunExposed,                             !- Sun Exposure
  WindExposed,                            !- Wind Exposure
  ,                                       !- View Factor to Ground
  ,                                       !- Number of Vertices
  11.6729512977653, 5.83647564888264, 2.4384, !- X,Y,Z Vertex 1 {m}
  11.6729512977653, 5.83647564888264, 0,  !- X,Y,Z Vertex 2 {m}
  0, 5.83647564888264, 0,                 !- X,Y,Z Vertex 3 {m}
  0, 5.83647564888264, 2.4384;            !- X,Y,Z Vertex 4 {m}

OS:Surface,
  {6ccca7cd-cd25-4efc-9897-dc2ed873b989}, !- Handle
  Surface 10,                             !- Name
  Wall,                                   !- Surface Type
  ,                                       !- Construction Name
  {858a412d-bd23-4566-8834-deae7c56af7a}, !- Space Name
  Outdoors,                               !- Outside Boundary Condition
  ,                                       !- Outside Boundary Condition Object
  SunExposed,                             !- Sun Exposure
  WindExposed,                            !- Wind Exposure
  ,                                       !- View Factor to Ground
  ,                                       !- Number of Vertices
  11.6729512977653, 3.048, 2.4384,        !- X,Y,Z Vertex 1 {m}
  11.6729512977653, 3.048, 0,             !- X,Y,Z Vertex 2 {m}
  11.6729512977653, 5.83647564888264, 0,  !- X,Y,Z Vertex 3 {m}
  11.6729512977653, 5.83647564888264, 2.4384; !- X,Y,Z Vertex 4 {m}

OS:Surface,
  {2fccbdd1-943b-42db-a5b1-442ade177033}, !- Handle
  Surface 11,                             !- Name
  Wall,                                   !- Surface Type
  ,                                       !- Construction Name
  {858a412d-bd23-4566-8834-deae7c56af7a}, !- Space Name
  Surface,                                !- Outside Boundary Condition
  {738657e9-5195-4b50-907b-6096078ab08b}, !- Outside Boundary Condition Object
  NoSun,                                  !- Sun Exposure
  NoWind,                                 !- Wind Exposure
  ,                                       !- View Factor to Ground
  ,                                       !- Number of Vertices
  5.57695129776527, 3.048, 2.4384,        !- X,Y,Z Vertex 1 {m}
  5.57695129776527, 3.048, 0,             !- X,Y,Z Vertex 2 {m}
  11.6729512977653, 3.048, 0,             !- X,Y,Z Vertex 3 {m}
  11.6729512977653, 3.048, 2.4384;        !- X,Y,Z Vertex 4 {m}

OS:Surface,
  {03af6936-3ff3-42e9-8792-9f11a7f4d1e9}, !- Handle
  Surface 12,                             !- Name
  Wall,                                   !- Surface Type
  ,                                       !- Construction Name
  {858a412d-bd23-4566-8834-deae7c56af7a}, !- Space Name
  Surface,                                !- Outside Boundary Condition
  {ee03650e-5099-46d7-87ae-47e098656c39}, !- Outside Boundary Condition Object
  NoSun,                                  !- Sun Exposure
  NoWind,                                 !- Wind Exposure
  ,                                       !- View Factor to Ground
  ,                                       !- Number of Vertices
  5.57695129776527, 0, 2.4384,            !- X,Y,Z Vertex 1 {m}
  5.57695129776527, 0, 0,                 !- X,Y,Z Vertex 2 {m}
  5.57695129776527, 3.048, 0,             !- X,Y,Z Vertex 3 {m}
  5.57695129776527, 3.048, 2.4384;        !- X,Y,Z Vertex 4 {m}

OS:Surface,
  {52bd2a7b-9eac-4863-9653-d64c661fa080}, !- Handle
  Surface 13,                             !- Name
  Wall,                                   !- Surface Type
  ,                                       !- Construction Name
  {858a412d-bd23-4566-8834-deae7c56af7a}, !- Space Name
  Outdoors,                               !- Outside Boundary Condition
  ,                                       !- Outside Boundary Condition Object
  SunExposed,                             !- Sun Exposure
  WindExposed,                            !- Wind Exposure
  ,                                       !- View Factor to Ground
  ,                                       !- Number of Vertices
  0, 0, 2.4384,                           !- X,Y,Z Vertex 1 {m}
  0, 0, 0,                                !- X,Y,Z Vertex 2 {m}
  5.57695129776527, 0, 0,                 !- X,Y,Z Vertex 3 {m}
  5.57695129776527, 0, 2.4384;            !- X,Y,Z Vertex 4 {m}

OS:Surface,
  {af4a4846-e468-47e1-8075-1e188c918dfe}, !- Handle
  Surface 14,                             !- Name
  RoofCeiling,                            !- Surface Type
  ,                                       !- Construction Name
  {858a412d-bd23-4566-8834-deae7c56af7a}, !- Space Name
  Surface,                                !- Outside Boundary Condition
  {dd188ca0-f00a-4e09-9922-88934ea65b35}, !- Outside Boundary Condition Object
  NoSun,                                  !- Sun Exposure
  NoWind,                                 !- Wind Exposure
  ,                                       !- View Factor to Ground
  ,                                       !- Number of Vertices
  5.57695129776527, 0, 2.4384,            !- X,Y,Z Vertex 1 {m}
  5.57695129776527, 3.048, 2.4384,        !- X,Y,Z Vertex 2 {m}
  11.6729512977653, 3.048, 2.4384,        !- X,Y,Z Vertex 3 {m}
  11.6729512977653, 5.83647564888264, 2.4384, !- X,Y,Z Vertex 4 {m}
  0, 5.83647564888264, 2.4384,            !- X,Y,Z Vertex 5 {m}