!- NOTE: Auto-generated from /test/osw_files/SFD_Successful_EnergyPlus_Run_AMY_PV.osw

OS:Version,
  {01860e61-2f04-45a0-a71d-fd2fab1a3405}, !- Handle
  2.6.0;                                  !- Version Identifier

OS:Building,
  {ca081cff-94cc-4d42-9712-94e32572ac50}, !- Handle
  Building 1,                             !- Name
  ,                                       !- Building Sector Type
  22.5,                                   !- North Axis {deg}
  ,                                       !- Nominal Floor to Floor Height {m}
  ,                                       !- Space Type Name
  ,                                       !- Default Construction Set Name
  ,                                       !- Default Schedule Set Name
  2,                                      !- Standards Number of Stories
  2,                                      !- Standards Number of Above Ground Stories
  singlefamilydetached,                   !- Standards Building Type
  1;                                      !- Standards Number of Living Units

OS:Facility,
  {bfed10b0-b1ef-4724-b923-5b7c9fb087a7}; !- Handle

OS:Site,
  {0efb4c84-c803-4b33-b764-07bf4ede784f}, !- Handle
  Dupage_Illinois_United States,          !- Name
  41.77,                                  !- Latitude {deg}
  -88.06,                                 !- Longitude {deg}
  -6,                                     !- Time Zone {hr}
  210.2,                                  !- Elevation {m}
  Suburbs;                                !- Terrain

OS:SimulationControl,
  {fd7d7e26-31f0-4726-851f-b5ceaec24a69}, !- Handle
  ,                                       !- Do Zone Sizing Calculation
  ,                                       !- Do System Sizing Calculation
  ,                                       !- Do Plant Sizing Calculation
  No;                                     !- Run Simulation for Sizing Periods

OS:Sizing:Parameters,
  {3bc88aca-600e-4af4-845e-ecb0bbb664c8}, !- Handle
  1.25,                                   !- Heating Sizing Factor
  1.15;                                   !- Cooling Sizing Factor

OS:Timestep,
  {403fd954-ef21-45b1-8d98-2f0e9acb091c}, !- Handle
  6;                                      !- Number of Timesteps per Hour

OS:ShadowCalculation,
  {ce42db8f-e319-4658-9aa2-e6f009da2a9b}, !- Handle
  20,                                     !- Calculation Frequency
  200;                                    !- Maximum Figures in Shadow Overlap Calculations

OS:HeatBalanceAlgorithm,
  {fb821674-3c7b-41ce-b2c0-8fce5fc359bf}, !- Handle
  ConductionTransferFunction,             !- Algorithm
  200;                                    !- Surface Temperature Upper Limit {C}

OS:RunPeriod,
  {10978947-2d9b-423a-bf70-323bd139323f}, !- Handle
  Run Period 1,                           !- Name
  1,                                      !- Begin Month
  1,                                      !- Begin Day of Month
  12,                                     !- End Month
  31,                                     !- End Day of Month
  ,                                       !- Use Weather File Holidays and Special Days
  ,                                       !- Use Weather File Daylight Saving Period
  ,                                       !- Apply Weekend Holiday Rule
  ,                                       !- Use Weather File Rain Indicators
  ,                                       !- Use Weather File Snow Indicators
  ;                                       !- Number of Times Runperiod to be Repeated

OS:LifeCycleCost:Parameters,
  {2084d002-a2c7-4b1d-8783-feb4b39b5a0c}, !- Handle
  ,                                       !- Analysis Type
  ,                                       !- Discounting Convention
  ,                                       !- Inflation Approach
  ,                                       !- Real Discount Rate
  ,                                       !- Nominal Discount Rate
  ,                                       !- Inflation
  ,                                       !- Base Date Month
  ,                                       !- Base Date Year
  ,                                       !- Service Date Month
  ,                                       !- Service Date Year
  ;                                       !- Length of Study Period in Years

OS:SurfaceConvectionAlgorithm:Outside,
  {f1717bc0-496a-4bcd-aba9-955fa43bf978}, !- Handle
  DOE-2;                                  !- Algorithm

OS:SurfaceConvectionAlgorithm:Inside,
  {012a5c31-770e-4e3a-862c-285be86f8b5e}, !- Handle
  TARP;                                   !- Algorithm

OS:ZoneCapacitanceMultiplier:ResearchSpecial,
  {696b5598-0f17-4176-8e22-0461c6b6b846}, !- Handle
  ,                                       !- Temperature Capacity Multiplier
  15,                                     !- Humidity Capacity Multiplier
  ;                                       !- Carbon Dioxide Capacity Multiplier

OS:WeatherFile,
  {5bdcee61-4ac8-43da-abad-65151facb9a6}, !- Handle
  Dupage,                                 !- City
  Illinois,                               !- State Province Region
  United States,                          !- Country
  NSRDB AMY,                              !- Data Source
  725300,                                 !- WMO Number
  41.77,                                  !- Latitude {deg}
  -88.06,                                 !- Longitude {deg}
  -6,                                     !- Time Zone {hr}
  210.2,                                  !- Elevation {m}
  file:../tests/DuPage_17043_725300_880860.epw, !- Url
  335AE046;                               !- Checksum

OS:AdditionalProperties,
  {a5523188-1d10-40a7-b613-a0f0c5a5ce23}, !- Handle
  {5bdcee61-4ac8-43da-abad-65151facb9a6}, !- Object Name
  EPWHeaderCity,                          !- Feature Name 1
  String,                                 !- Feature Data Type 1
  Dupage,                                 !- Feature Value 1
  EPWHeaderState,                         !- Feature Name 2
  String,                                 !- Feature Data Type 2
  Illinois,                               !- Feature Value 2
  EPWHeaderCountry,                       !- Feature Name 3
  String,                                 !- Feature Data Type 3
  United States,                          !- Feature Value 3
  EPWHeaderDataSource,                    !- Feature Name 4
  String,                                 !- Feature Data Type 4
  NSRDB AMY,                              !- Feature Value 4
  EPWHeaderStation,                       !- Feature Name 5
  String,                                 !- Feature Data Type 5
  725300,                                 !- Feature Value 5
  EPWHeaderLatitude,                      !- Feature Name 6
  Double,                                 !- Feature Data Type 6
  41.770000000000003,                     !- Feature Value 6
  EPWHeaderLongitude,                     !- Feature Name 7
  Double,                                 !- Feature Data Type 7
  -88.060000000000002,                    !- Feature Value 7
  EPWHeaderTimezone,                      !- Feature Name 8
  Double,                                 !- Feature Data Type 8
  -6,                                     !- Feature Value 8
  EPWHeaderAltitude,                      !- Feature Name 9
  Double,                                 !- Feature Data Type 9
  689.6325459317585,                      !- Feature Value 9
  EPWHeaderLocalPressure,                 !- Feature Name 10
  Double,                                 !- Feature Data Type 10
  0.97494084883101129,                    !- Feature Value 10
  EPWHeaderRecordsPerHour,                !- Feature Name 11
  Double,                                 !- Feature Data Type 11
  1,                                      !- Feature Value 11
  EPWDataAnnualAvgDrybulb,                !- Feature Name 12
  Double,                                 !- Feature Data Type 12
  54.844385245901549,                     !- Feature Value 12
  EPWDataAnnualMinDrybulb,                !- Feature Name 13
  Double,                                 !- Feature Data Type 13
  5,                                      !- Feature Value 13
  EPWDataAnnualMaxDrybulb,                !- Feature Name 14
  Double,                                 !- Feature Data Type 14
  105.62,                                 !- Feature Value 14
  EPWDataCDD50F,                          !- Feature Name 15
  Double,                                 !- Feature Data Type 15
  4059.1725000000001,                     !- Feature Value 15
  EPWDataCDD65F,                          !- Feature Name 16
  Double,                                 !- Feature Data Type 16
  1474.2600000000004,                     !- Feature Value 16
  EPWDataHDD50F,                          !- Feature Name 17
  Double,                                 !- Feature Data Type 17
  2286.1274999999991,                     !- Feature Value 17
  EPWDataHDD65F,                          !- Feature Name 18
  Double,                                 !- Feature Data Type 18
  5191.2150000000029,                     !- Feature Value 18
  EPWDataAnnualAvgWindspeed,              !- Feature Name 19
  Double,                                 !- Feature Data Type 19
  3.5684198542805086,                     !- Feature Value 19
  EPWDataMonthlyAvgDrybulbs,              !- Feature Name 20
  String,                                 !- Feature Data Type 20
  28.41282258064516&#4432.038275862068964&#4452.63080645161291&#4452.12775000000002&#4466.1784677419355&#4475.404&#4483.1221774193549&#4476.57975806451611&#4465.01274999999998&#4451.19032258064516&#4439.682&#4434.69661290322581, !- Feature Value 20
  EPWDataGroundMonthlyTemps,              !- Feature Name 21
  String,                                 !- Feature Data Type 21
  44.905067238489494&#4440.72076226159538&#4440.38566811323534&#4442.371334627694466&#4450.34267918288327&#4458.276889833511575&#4465.15542642967779&#4469.51281018918922&#4469.88299387296746&#4466.33899456085925&#4459.63586468638556&#4451.94504330191046, !- Feature Value 21
  EPWDataWSF,                             !- Feature Name 22
  Double,                                 !- Feature Data Type 22
  0.59999999999999998,                    !- Feature Value 22
  EPWDataMonthlyAvgDailyHighDrybulbs,     !- Feature Name 23
  String,                                 !- Feature Data Type 23
  36.064516129032256&#4440.72357142857143&#4462.86129032258065&#4463.146&#4477.23225806451613&#4486.40199999999999&#4494.02451612903226&#4488.97290322580645&#4477.66&#4462.054193548387104&#4449.838&#4442.596774193548384, !- Feature Value 23
  EPWDataMonthlyAvgDailyLowDrybulbs,      !- Feature Name 24
  String,                                 !- Feature Data Type 24
  21.066451612903226&#4424.77428571428571&#4443.450322580645164&#4441.126&#4455.45225806451613&#4462.846000000000004&#4472.65677419354842&#4465.30000000000001&#4455.53800000000001&#4442.81161290322581&#4431.904&#4428.27806451612903, !- Feature Value 24
  EPWDesignHeatingDrybulb,                !- Feature Name 25
  Double,                                 !- Feature Data Type 25
  14,                                     !- Feature Value 25
  EPWDesignHeatingWindspeed,              !- Feature Name 26
  Double,                                 !- Feature Data Type 26
  4.125,                                  !- Feature Value 26
  EPWDesignCoolingDrybulb,                !- Feature Name 27
  Double,                                 !- Feature Data Type 27
  96.079999999999998,                     !- Feature Value 27
  EPWDesignCoolingWetbulb,                !- Feature Name 28
  Double,                                 !- Feature Data Type 28
  71.610407140758824,                     !- Feature Value 28
  EPWDesignCoolingHumidityRatio,          !- Feature Name 29
  Double,                                 !- Feature Data Type 29
  0.011209163918750703,                   !- Feature Value 29
  EPWDesignCoolingWindspeed,              !- Feature Name 30
  Double,                                 !- Feature Data Type 30
  2.7814814814814817,                     !- Feature Value 30
  EPWDesignDailyTemperatureRange,         !- Feature Name 31
  Double,                                 !- Feature Data Type 31
  23.672903225806436,                     !- Feature Value 31
  EPWDesignDehumidDrybulb,                !- Feature Name 32
  Double,                                 !- Feature Data Type 32
  79.333739130434765,                     !- Feature Value 32
  EPWDesignDehumidHumidityRatio,          !- Feature Name 33
  Double,                                 !- Feature Data Type 33
  0.017428546213141733,                   !- Feature Value 33
  EPWDesignCoolingDirectNormal,           !- Feature Name 34
  Double,                                 !- Feature Data Type 34
  909,                                    !- Feature Value 34
  EPWDesignCoolingDiffuseHorizontal,      !- Feature Name 35
  Double,                                 !- Feature Data Type 35
  146;                                    !- Feature Value 35

OS:YearDescription,
  {94163601-6441-4332-8770-62a979e32691}, !- Handle
  2012,                                   !- Calendar Year
  ,                                       !- Day of Week for Start Day
  ;                                       !- Is Leap Year

OS:ClimateZones,
  {fb5da3ff-4099-44a2-9cf3-0e3b7e6adfca}, !- Handle
  ,                                       !- Active Institution
  ,                                       !- Active Year
  ,                                       !- Climate Zone Institution Name 1
  ,                                       !- Climate Zone Document Name 1
  ,                                       !- Climate Zone Document Year 1
  ,                                       !- Climate Zone Value 1
  Building America,                       !- Climate Zone Institution Name 2
  ,                                       !- Climate Zone Document Name 2
  0,                                      !- Climate Zone Document Year 2
  Cold;                                   !- Climate Zone Value 2

OS:Site:WaterMainsTemperature,
  {0d812424-6155-4818-9110-d6a7082e3996}, !- Handle
  Correlation,                            !- Calculation Method
  ,                                       !- Temperature Schedule Name
  12.691325136612,                        !- Annual Average Outdoor Air Temperature {C}
  30.3940860215054;                       !- Maximum Difference In Monthly Average Outdoor Air Temperatures {deltaC}

OS:RunPeriodControl:DaylightSavingTime,
  {1930eb3e-6033-4f1f-83f1-9082428273f4}, !- Handle
  4/7,                                    !- Start Date
  10/26;                                  !- End Date

OS:Site:GroundTemperature:Deep,
  {59a343ab-c302-489d-9701-060a7b787471}, !- Handle
  12.691325136612,                        !- January Deep Ground Temperature {C}
  12.691325136612,                        !- February Deep Ground Temperature {C}
  12.691325136612,                        !- March Deep Ground Temperature {C}
  12.691325136612,                        !- April Deep Ground Temperature {C}
  12.691325136612,                        !- May Deep Ground Temperature {C}
  12.691325136612,                        !- June Deep Ground Temperature {C}
  12.691325136612,                        !- July Deep Ground Temperature {C}
  12.691325136612,                        !- August Deep Ground Temperature {C}
  12.691325136612,                        !- September Deep Ground Temperature {C}
  12.691325136612,                        !- October Deep Ground Temperature {C}
  12.691325136612,                        !- November Deep Ground Temperature {C}
  12.691325136612;                        !- December Deep Ground Temperature {C}

OS:ThermalZone,
  {fe498eff-d134-4054-b365-b8b324cdc0a6}, !- Handle
  living zone,                            !- Name
  ,                                       !- Multiplier
  ,                                       !- Ceiling Height {m}
  ,                                       !- Volume {m3}
  ,                                       !- Floor Area {m2}
  ,                                       !- Zone Inside Convection Algorithm
  ,                                       !- Zone Outside Convection Algorithm
  ,                                       !- Zone Conditioning Equipment List Name
  {5e39e160-fb59-4dee-8a68-7116a1d48ac5}, !- Zone Air Inlet Port List
  {9f7f272b-2f84-438d-ae90-a3f513361587}, !- Zone Air Exhaust Port List
  {9dc2e567-d6af-45da-82c3-c1048db899e1}, !- Zone Air Node Name
  {7ef97df9-f02e-413d-be93-37ccc7a0e257}, !- Zone Return Air Node Name
  ,                                       !- Primary Daylighting Control Name
  ,                                       !- Fraction of Zone Controlled by Primary Daylighting Control
  ,                                       !- Secondary Daylighting Control Name
  ,                                       !- Fraction of Zone Controlled by Secondary Daylighting Control
  ,                                       !- Illuminance Map Name
  ,                                       !- Group Rendering Name
  {0a3f4f3d-f60c-4e3b-841d-1e49bba8d529}, !- Thermostat Name
  No;                                     !- Use Ideal Air Loads

OS:Node,
  {db409901-6963-48e7-939a-5b5ee1fd0d1b}, !- Handle
  Node 1,                                 !- Name
  {9dc2e567-d6af-45da-82c3-c1048db899e1}, !- Inlet Port
  ;                                       !- Outlet Port

OS:Connection,
  {9dc2e567-d6af-45da-82c3-c1048db899e1}, !- Handle
  {c2fddaec-9201-4561-bb59-f8893e562de0}, !- Name
  {fe498eff-d134-4054-b365-b8b324cdc0a6}, !- Source Object
  11,                                     !- Outlet Port
  {db409901-6963-48e7-939a-5b5ee1fd0d1b}, !- Target Object
  2;                                      !- Inlet Port

OS:PortList,
  {5e39e160-fb59-4dee-8a68-7116a1d48ac5}, !- Handle
  {04359712-9671-48e0-8c17-a96aa8809fed}, !- Name
  {fe498eff-d134-4054-b365-b8b324cdc0a6}, !- HVAC Component
  {ed4c2e80-02f5-488c-927c-d7937c0cf49d}; !- Port 1

OS:PortList,
  {9f7f272b-2f84-438d-ae90-a3f513361587}, !- Handle
  {8831c7dd-44ca-4af0-bde9-c392eb2a7355}, !- Name
  {fe498eff-d134-4054-b365-b8b324cdc0a6}; !- HVAC Component

OS:Sizing:Zone,
  {2c9b3303-18e6-4bde-af48-e072f0ab931e}, !- Handle
  {fe498eff-d134-4054-b365-b8b324cdc0a6}, !- Zone or ZoneList Name
  SupplyAirTemperature,                   !- Zone Cooling Design Supply Air Temperature Input Method
  14,                                     !- Zone Cooling Design Supply Air Temperature {C}
  11.11,                                  !- Zone Cooling Design Supply Air Temperature Difference {deltaC}
  SupplyAirTemperature,                   !- Zone Heating Design Supply Air Temperature Input Method
  40,                                     !- Zone Heating Design Supply Air Temperature {C}
  11.11,                                  !- Zone Heating Design Supply Air Temperature Difference {deltaC}
  0.0085,                                 !- Zone Cooling Design Supply Air Humidity Ratio {kg-H2O/kg-air}
  0.008,                                  !- Zone Heating Design Supply Air Humidity Ratio {kg-H2O/kg-air}
  ,                                       !- Zone Heating Sizing Factor
  ,                                       !- Zone Cooling Sizing Factor
  DesignDay,                              !- Cooling Design Air Flow Method
  ,                                       !- Cooling Design Air Flow Rate {m3/s}
  ,                                       !- Cooling Minimum Air Flow per Zone Floor Area {m3/s-m2}
  ,                                       !- Cooling Minimum Air Flow {m3/s}
  ,                                       !- Cooling Minimum Air Flow Fraction
  DesignDay,                              !- Heating Design Air Flow Method
  ,                                       !- Heating Design Air Flow Rate {m3/s}
  ,                                       !- Heating Maximum Air Flow per Zone Floor Area {m3/s-m2}
  ,                                       !- Heating Maximum Air Flow {m3/s}
  ,                                       !- Heating Maximum Air Flow Fraction
  ,                                       !- Design Zone Air Distribution Effectiveness in Cooling Mode
  ,                                       !- Design Zone Air Distribution Effectiveness in Heating Mode
  No,                                     !- Account for Dedicated Outdoor Air System
  NeutralSupplyAir,                       !- Dedicated Outdoor Air System Control Strategy
  autosize,                               !- Dedicated Outdoor Air Low Setpoint Temperature for Design {C}
  autosize;                               !- Dedicated Outdoor Air High Setpoint Temperature for Design {C}

OS:ZoneHVAC:EquipmentList,
  {4b575637-74da-4309-80e5-2350566ba79b}, !- Handle
  Zone HVAC Equipment List 1,             !- Name
  {fe498eff-d134-4054-b365-b8b324cdc0a6}, !- Thermal Zone
  {b1a45938-2622-4a6e-a9e1-87d189258a98}, !- Zone Equipment 1
  1,                                      !- Zone Equipment Cooling Sequence 1
  1;                                      !- Zone Equipment Heating or No-Load Sequence 1

OS:Space,
  {24a59b6e-8d9d-4f6e-a354-9035122c5102}, !- Handle
  living space,                           !- Name
  {9c3a0daa-607a-4df0-b9c0-cdeef2dbb5a4}, !- Space Type Name
  ,                                       !- Default Construction Set Name
  ,                                       !- Default Schedule Set Name
  -0,                                     !- Direction of Relative North {deg}
  0,                                      !- X Origin {m}
  0,                                      !- Y Origin {m}
  0,                                      !- Z Origin {m}
  ,                                       !- Building Story Name
  {fe498eff-d134-4054-b365-b8b324cdc0a6}, !- Thermal Zone Name
  ,                                       !- Part of Total Floor Area
  ,                                       !- Design Specification Outdoor Air Object Name
  {b885cb50-a770-4427-9352-c3542ec4d9e2}; !- Building Unit Name

OS:Surface,
  {fd48ab17-6e91-407d-852a-4c120ef71696}, !- Handle
  Surface 1,                              !- Name
  Floor,                                  !- Surface Type
  {28a6e955-81e7-460e-bf1b-9ca44193a284}, !- Construction Name
  {24a59b6e-8d9d-4f6e-a354-9035122c5102}, !- Space Name
  Foundation,                             !- Outside Boundary Condition
  {ca053502-1f53-47c0-9d03-0f7ea40a6f6c}, !- Outside Boundary Condition Object
  NoSun,                                  !- Sun Exposure
  NoWind,                                 !- Wind Exposure
  ,                                       !- View Factor to Ground
  ,                                       !- Number of Vertices
  0, 0, 0,                                !- X,Y,Z Vertex 1 {m}
  0, 1.524, 0,                            !- X,Y,Z Vertex 2 {m}
  3.048, 1.524, 0,                        !- X,Y,Z Vertex 3 {m}
  3.048, 0, 0;                            !- X,Y,Z Vertex 4 {m}

OS:Surface,
  {88b06191-af95-488f-a13a-9263610d859c}, !- Handle
  Surface 2,                              !- Name
  Wall,                                   !- Surface Type
  {47387186-a734-4e28-b5a0-1c6c9ff22d9f}, !- Construction Name
  {24a59b6e-8d9d-4f6e-a354-9035122c5102}, !- Space Name
  Outdoors,                               !- Outside Boundary Condition
  ,                                       !- Outside Boundary Condition Object
  SunExposed,                             !- Sun Exposure
  WindExposed,                            !- Wind Exposure
  ,                                       !- View Factor to Ground
  ,                                       !- Number of Vertices
  0, 1.524, 2.4384,                       !- X,Y,Z Vertex 1 {m}
  0, 1.524, 0,                            !- X,Y,Z Vertex 2 {m}
  0, 0, 0,                                !- X,Y,Z Vertex 3 {m}
  0, 0, 2.4384;                           !- X,Y,Z Vertex 4 {m}

OS:Surface,
  {c6cb35b2-46f9-4cff-8ea9-88fd68afc51c}, !- Handle
  Surface 3,                              !- Name
  Wall,                                   !- Surface Type
  {47387186-a734-4e28-b5a0-1c6c9ff22d9f}, !- Construction Name
  {24a59b6e-8d9d-4f6e-a354-9035122c5102}, !- Space Name
  Outdoors,                               !- Outside Boundary Condition
  ,                                       !- Outside Boundary Condition Object
  SunExposed,                             !- Sun Exposure
  WindExposed,                            !- Wind Exposure
  ,                                       !- View Factor to Ground
  ,                                       !- Number of Vertices
  3.048, 1.524, 2.4384,                   !- X,Y,Z Vertex 1 {m}
  3.048, 1.524, 0,                        !- X,Y,Z Vertex 2 {m}
  0, 1.524, 0,                            !- X,Y,Z Vertex 3 {m}
  0, 1.524, 2.4384;                       !- X,Y,Z Vertex 4 {m}

OS:Surface,
  {a6612214-f818-4e3c-9fe4-764439701e05}, !- Handle
  Surface 4,                              !- Name
  Wall,                                   !- Surface Type
  {47387186-a734-4e28-b5a0-1c6c9ff22d9f}, !- Construction Name
  {24a59b6e-8d9d-4f6e-a354-9035122c5102}, !- Space Name
  Outdoors,                               !- Outside Boundary Condition
  ,                                       !- Outside Boundary Condition Object
  SunExposed,                             !- Sun Exposure
  WindExposed,                            !- Wind Exposure
  ,                                       !- View Factor to Ground
  ,                                       !- Number of Vertices
  3.048, 0, 2.4384,                       !- X,Y,Z Vertex 1 {m}
  3.048, 0, 0,                            !- X,Y,Z Vertex 2 {m}
  3.048, 1.524, 0,                        !- X,Y,Z Vertex 3 {m}
  3.048, 1.524, 2.4384;                   !- X,Y,Z Vertex 4 {m}

OS:Surface,
  {a11d2d2f-c671-4df2-ac7a-0b37edf6cfb3}, !- Handle
  Surface 5,                              !- Name
  Wall,                                   !- Surface Type
  {47387186-a734-4e28-b5a0-1c6c9ff22d9f}, !- Construction Name
  {24a59b6e-8d9d-4f6e-a354-9035122c5102}, !- Space Name
  Outdoors,                               !- Outside Boundary Condition
  ,                                       !- Outside Boundary Condition Object
  SunExposed,                             !- Sun Exposure
  WindExposed,                            !- Wind Exposure
  ,                                       !- View Factor to Ground
  ,                                       !- Number of Vertices
  3.048, 0, 0,                            !- X,Y,Z Vertex 1 {m}
  3.048, 0, 2.4384,                       !- X,Y,Z Vertex 2 {m}
  1.04865714285714, 0, 2.4384,            !- X,Y,Z Vertex 3 {m}
  1.04865714285714, 0, 0;                 !- X,Y,Z Vertex 4 {m}

OS:Surface,
  {644a0bb1-19b8-46d5-8e97-52f44d2b42e5}, !- Handle
  Surface 6,                              !- Name
  RoofCeiling,                            !- Surface Type
  {ef5d25ca-9137-4f13-bac3-5a7a426421fe}, !- Construction Name
  {24a59b6e-8d9d-4f6e-a354-9035122c5102}, !- Space Name
  Surface,                                !- Outside Boundary Condition
  {d420df4f-886f-4544-803e-9f95d7dd1f2f}, !- Outside Boundary Condition Object
  NoSun,                                  !- Sun Exposure
  NoWind,                                 !- Wind Exposure
  ,                                       !- View Factor to Ground
  ,                                       !- Number of Vertices
  3.048, 0, 2.4384,                       !- X,Y,Z Vertex 1 {m}
  3.048, 1.524, 2.4384,                   !- X,Y,Z Vertex 2 {m}
  0, 1.524, 2.4384,                       !- X,Y,Z Vertex 3 {m}
  0, 0, 2.4384;                           !- X,Y,Z Vertex 4 {m}

OS:SpaceType,
  {9c3a0daa-607a-4df0-b9c0-cdeef2dbb5a4}, !- Handle
  Space Type 1,                           !- Name
  ,                                       !- Default Construction Set Name
  ,                                       !- Default Schedule Set Name
  ,                                       !- Group Rendering Name
  ,                                       !- Design Specification Outdoor Air Object Name
  ,                                       !- Standards Building Type
  living;                                 !- Standards Space Type

OS:Space,
  {88f47259-d429-40f9-92d2-80315a95504d}, !- Handle
  living space|story 2,                   !- Name
  {9c3a0daa-607a-4df0-b9c0-cdeef2dbb5a4}, !- Space Type Name
  ,                                       !- Default Construction Set Name
  ,                                       !- Default Schedule Set Name
  -0,                                     !- Direction of Relative North {deg}
  0,                                      !- X Origin {m}
  0,                                      !- Y Origin {m}
  2.4384,                                 !- Z Origin {m}
  ,                                       !- Building Story Name
  {fe498eff-d134-4054-b365-b8b324cdc0a6}, !- Thermal Zone Name
  ,                                       !- Part of Total Floor Area
  ,                                       !- Design Specification Outdoor Air Object Name
  {b885cb50-a770-4427-9352-c3542ec4d9e2}; !- Building Unit Name

OS:Surface,
  {d420df4f-886f-4544-803e-9f95d7dd1f2f}, !- Handle
  Surface 7,                              !- Name
  Floor,                                  !- Surface Type
  {7f452645-35f2-4630-b802-1b3967db5130}, !- Construction Name
  {88f47259-d429-40f9-92d2-80315a95504d}, !- Space Name
  Surface,                                !- Outside Boundary Condition
  {644a0bb1-19b8-46d5-8e97-52f44d2b42e5}, !- Outside Boundary Condition Object
  NoSun,                                  !- Sun Exposure
  NoWind,                                 !- Wind Exposure
  ,                                       !- View Factor to Ground