!- NOTE: Auto-generated from /test/osw_files/SFD_Successful_EnergyPlus_Run_AMY_PV.osw

OS:Version,
  {d20b733c-a3f8-48b9-b6bb-2cbbe7abe4c2}, !- Handle
  2.7.0;                                  !- Version Identifier

OS:Building,
  {c714a65d-cffa-4787-b6e4-3a6f1266d316}, !- Handle
  Building 1,                             !- Name
  ,                                       !- Building Sector Type
  22.5,                                   !- North Axis {deg}
  ,                                       !- Nominal Floor to Floor Height {m}
  ,                                       !- Space Type Name
  ,                                       !- Default Construction Set Name
  ,                                       !- Default Schedule Set Name
  2,                                      !- Standards Number of Stories
  2,                                      !- Standards Number of Above Ground Stories
  ,                                       !- Standards Template
  singlefamilydetached,                   !- Standards Building Type
  1;                                      !- Standards Number of Living Units

OS:Facility,
  {ea270732-ea45-4471-97c9-f5ea865bbc3f}; !- Handle

OS:Site,
  {404151a1-bf91-4c3a-818b-6b2fe1b5b94a}, !- Handle
  Dupage_Illinois_United States,          !- Name
  41.77,                                  !- Latitude {deg}
  -88.06,                                 !- Longitude {deg}
  -6,                                     !- Time Zone {hr}
  210.2,                                  !- Elevation {m}
  Suburbs;                                !- Terrain

OS:SimulationControl,
  {6d497a9f-3ee2-416c-9cf3-e5a0810207e2}, !- Handle
  ,                                       !- Do Zone Sizing Calculation
  ,                                       !- Do System Sizing Calculation
  ,                                       !- Do Plant Sizing Calculation
  No;                                     !- Run Simulation for Sizing Periods

OS:Sizing:Parameters,
  {31e77b1d-7744-4863-8afd-282f9632b241}, !- Handle
  1.25,                                   !- Heating Sizing Factor
  1.15;                                   !- Cooling Sizing Factor

OS:Timestep,
  {852128d5-049a-4987-a333-962081cdfbf0}, !- Handle
  6;                                      !- Number of Timesteps per Hour

OS:ShadowCalculation,
  {578aceed-e833-43c6-a38b-91ff75fa8653}, !- Handle
  20,                                     !- Calculation Frequency
  200;                                    !- Maximum Figures in Shadow Overlap Calculations

OS:HeatBalanceAlgorithm,
  {b6d483a0-72c3-4378-9492-cf8e8b19f22d}, !- Handle
  ConductionTransferFunction,             !- Algorithm
  200;                                    !- Surface Temperature Upper Limit {C}

OS:RunPeriod,
  {1105d8df-9a22-479b-ae4c-e4d704a2604b}, !- Handle
  Run Period 1,                           !- Name
  1,                                      !- Begin Month
  1,                                      !- Begin Day of Month
  12,                                     !- End Month
  31,                                     !- End Day of Month
  ,                                       !- Use Weather File Holidays and Special Days
  ,                                       !- Use Weather File Daylight Saving Period
  ,                                       !- Apply Weekend Holiday Rule
  ,                                       !- Use Weather File Rain Indicators
  ,                                       !- Use Weather File Snow Indicators
  ;                                       !- Number of Times Runperiod to be Repeated

OS:LifeCycleCost:Parameters,
  {0f01ec57-c0ef-4288-a150-84cf59f55370}, !- Handle
  ,                                       !- Analysis Type
  ,                                       !- Discounting Convention
  ,                                       !- Inflation Approach
  ,                                       !- Real Discount Rate
  ,                                       !- Nominal Discount Rate
  ,                                       !- Inflation
  ,                                       !- Base Date Month
  ,                                       !- Base Date Year
  ,                                       !- Service Date Month
  ,                                       !- Service Date Year
  ;                                       !- Length of Study Period in Years

OS:SurfaceConvectionAlgorithm:Outside,
  {e621ef97-b019-4793-8b86-4bf98c494a0e}, !- Handle
  DOE-2;                                  !- Algorithm

OS:SurfaceConvectionAlgorithm:Inside,
  {8f77c07a-0d78-4f0a-a515-1d934bbadff7}, !- Handle
  TARP;                                   !- Algorithm

OS:ZoneCapacitanceMultiplier:ResearchSpecial,
  {7ea73251-ee00-418a-a38d-fd0f2f3a7cd4}, !- Handle
  ,                                       !- Temperature Capacity Multiplier
  15,                                     !- Humidity Capacity Multiplier
  ;                                       !- Carbon Dioxide Capacity Multiplier

OS:WeatherFile,
  {ce5826da-5d71-4b98-a968-fa99cf91419e}, !- Handle
  Dupage,                                 !- City
  Illinois,                               !- State Province Region
  United States,                          !- Country
  NSRDB AMY,                              !- Data Source
  725300,                                 !- WMO Number
  41.77,                                  !- Latitude {deg}
  -88.06,                                 !- Longitude {deg}
  -6,                                     !- Time Zone {hr}
  210.2,                                  !- Elevation {m}
  file:../tests/DuPage_17043_725300_880860.epw, !- Url
  335AE046;                               !- Checksum

OS:AdditionalProperties,
  {c53b197f-f15c-400a-a2ad-bd957d2da376}, !- Handle
  {ce5826da-5d71-4b98-a968-fa99cf91419e}, !- Object Name
  EPWHeaderCity,                          !- Feature Name 1
  String,                                 !- Feature Data Type 1
  Dupage,                                 !- Feature Value 1
  EPWHeaderState,                         !- Feature Name 2
  String,                                 !- Feature Data Type 2
  Illinois,                               !- Feature Value 2
  EPWHeaderCountry,                       !- Feature Name 3
  String,                                 !- Feature Data Type 3
  United States,                          !- Feature Value 3
  EPWHeaderDataSource,                    !- Feature Name 4
  String,                                 !- Feature Data Type 4
  NSRDB AMY,                              !- Feature Value 4
  EPWHeaderStation,                       !- Feature Name 5
  String,                                 !- Feature Data Type 5
  725300,                                 !- Feature Value 5
  EPWHeaderLatitude,                      !- Feature Name 6
  Double,                                 !- Feature Data Type 6
  41.770000000000003,                     !- Feature Value 6
  EPWHeaderLongitude,                     !- Feature Name 7
  Double,                                 !- Feature Data Type 7
  -88.060000000000002,                    !- Feature Value 7
  EPWHeaderTimezone,                      !- Feature Name 8
  Double,                                 !- Feature Data Type 8
  -6,                                     !- Feature Value 8
  EPWHeaderAltitude,                      !- Feature Name 9
  Double,                                 !- Feature Data Type 9
  689.6325459317585,                      !- Feature Value 9
  EPWHeaderLocalPressure,                 !- Feature Name 10
  Double,                                 !- Feature Data Type 10
  0.97494084883101129,                    !- Feature Value 10
  EPWHeaderRecordsPerHour,                !- Feature Name 11
  Double,                                 !- Feature Data Type 11
  1,                                      !- Feature Value 11
  EPWDataAnnualAvgDrybulb,                !- Feature Name 12
  Double,                                 !- Feature Data Type 12
  54.844385245901549,                     !- Feature Value 12
  EPWDataAnnualMinDrybulb,                !- Feature Name 13
  Double,                                 !- Feature Data Type 13
  5,                                      !- Feature Value 13
  EPWDataAnnualMaxDrybulb,                !- Feature Name 14
  Double,                                 !- Feature Data Type 14
  105.62,                                 !- Feature Value 14
  EPWDataCDD50F,                          !- Feature Name 15
  Double,                                 !- Feature Data Type 15
  4059.1725000000001,                     !- Feature Value 15
  EPWDataCDD65F,                          !- Feature Name 16
  Double,                                 !- Feature Data Type 16
  1474.2600000000004,                     !- Feature Value 16
  EPWDataHDD50F,                          !- Feature Name 17
  Double,                                 !- Feature Data Type 17
  2286.1274999999991,                     !- Feature Value 17
  EPWDataHDD65F,                          !- Feature Name 18
  Double,                                 !- Feature Data Type 18
  5191.2150000000029,                     !- Feature Value 18
  EPWDataAnnualAvgWindspeed,              !- Feature Name 19
  Double,                                 !- Feature Data Type 19
  3.5684198542805086,                     !- Feature Value 19
  EPWDataMonthlyAvgDrybulbs,              !- Feature Name 20
  String,                                 !- Feature Data Type 20
  28.41282258064516&#4432.038275862068964&#4452.63080645161291&#4452.12775000000002&#4466.1784677419355&#4475.404&#4483.1221774193549&#4476.57975806451611&#4465.01274999999998&#4451.19032258064516&#4439.682&#4434.69661290322581, !- Feature Value 20
  EPWDataGroundMonthlyTemps,              !- Feature Name 21
  String,                                 !- Feature Data Type 21
  44.905067238489494&#4440.72076226159538&#4440.38566811323534&#4442.371334627694466&#4450.34267918288327&#4458.276889833511575&#4465.15542642967779&#4469.51281018918922&#4469.88299387296746&#4466.33899456085925&#4459.63586468638556&#4451.94504330191046, !- Feature Value 21
  EPWDataWSF,                             !- Feature Name 22
  Double,                                 !- Feature Data Type 22
  0.59999999999999998,                    !- Feature Value 22
  EPWDataMonthlyAvgDailyHighDrybulbs,     !- Feature Name 23
  String,                                 !- Feature Data Type 23
  36.064516129032256&#4440.72357142857143&#4462.86129032258065&#4463.146&#4477.23225806451613&#4486.40199999999999&#4494.02451612903226&#4488.97290322580645&#4477.66&#4462.054193548387104&#4449.838&#4442.596774193548384, !- Feature Value 23
  EPWDataMonthlyAvgDailyLowDrybulbs,      !- Feature Name 24
  String,                                 !- Feature Data Type 24
  21.066451612903226&#4424.77428571428571&#4443.450322580645164&#4441.126&#4455.45225806451613&#4462.846000000000004&#4472.65677419354842&#4465.30000000000001&#4455.53800000000001&#4442.81161290322581&#4431.904&#4428.27806451612903, !- Feature Value 24
  EPWDesignHeatingDrybulb,                !- Feature Name 25
  Double,                                 !- Feature Data Type 25
  14,                                     !- Feature Value 25
  EPWDesignHeatingWindspeed,              !- Feature Name 26
  Double,                                 !- Feature Data Type 26
  4.125,                                  !- Feature Value 26
  EPWDesignCoolingDrybulb,                !- Feature Name 27
  Double,                                 !- Feature Data Type 27
  96.079999999999998,                     !- Feature Value 27
  EPWDesignCoolingWetbulb,                !- Feature Name 28
  Double,                                 !- Feature Data Type 28
  71.610407140758824,                     !- Feature Value 28
  EPWDesignCoolingHumidityRatio,          !- Feature Name 29
  Double,                                 !- Feature Data Type 29
  0.011209163918750703,                   !- Feature Value 29
  EPWDesignCoolingWindspeed,              !- Feature Name 30
  Double,                                 !- Feature Data Type 30
  2.7814814814814817,                     !- Feature Value 30
  EPWDesignDailyTemperatureRange,         !- Feature Name 31
  Double,                                 !- Feature Data Type 31
  23.672903225806436,                     !- Feature Value 31
  EPWDesignDehumidDrybulb,                !- Feature Name 32
  Double,                                 !- Feature Data Type 32
  79.333739130434765,                     !- Feature Value 32
  EPWDesignDehumidHumidityRatio,          !- Feature Name 33
  Double,                                 !- Feature Data Type 33
  0.017428546213141733,                   !- Feature Value 33
  EPWDesignCoolingDirectNormal,           !- Feature Name 34
  Double,                                 !- Feature Data Type 34
  909,                                    !- Feature Value 34
  EPWDesignCoolingDiffuseHorizontal,      !- Feature Name 35
  Double,                                 !- Feature Data Type 35
  146;                                    !- Feature Value 35

OS:YearDescription,
  {16a078be-a341-4aad-bae8-569873727b9d}, !- Handle
  2012,                                   !- Calendar Year
  ,                                       !- Day of Week for Start Day
  ;                                       !- Is Leap Year

OS:ClimateZones,
  {d967812c-1293-4bda-b328-e5510155e406}, !- Handle
  ,                                       !- Active Institution
  ,                                       !- Active Year
  ,                                       !- Climate Zone Institution Name 1
  ,                                       !- Climate Zone Document Name 1
  ,                                       !- Climate Zone Document Year 1
  ,                                       !- Climate Zone Value 1
  Building America,                       !- Climate Zone Institution Name 2
  ,                                       !- Climate Zone Document Name 2
  0,                                      !- Climate Zone Document Year 2
  Cold;                                   !- Climate Zone Value 2

OS:Site:WaterMainsTemperature,
  {568f3a35-da26-49ba-a63c-715f7a933f3a}, !- Handle
  Correlation,                            !- Calculation Method
  ,                                       !- Temperature Schedule Name
  12.691325136612,                        !- Annual Average Outdoor Air Temperature {C}
  30.3940860215054;                       !- Maximum Difference In Monthly Average Outdoor Air Temperatures {deltaC}

OS:RunPeriodControl:DaylightSavingTime,
  {0f2f47a3-b237-4075-abbc-10fe48fa652e}, !- Handle
  4/7,                                    !- Start Date
  10/26;                                  !- End Date

OS:Site:GroundTemperature:Deep,
  {17a6c4dc-b5af-4e09-a877-1296292542db}, !- Handle
  12.691325136612,                        !- January Deep Ground Temperature {C}
  12.691325136612,                        !- February Deep Ground Temperature {C}
  12.691325136612,                        !- March Deep Ground Temperature {C}
  12.691325136612,                        !- April Deep Ground Temperature {C}
  12.691325136612,                        !- May Deep Ground Temperature {C}
  12.691325136612,                        !- June Deep Ground Temperature {C}
  12.691325136612,                        !- July Deep Ground Temperature {C}
  12.691325136612,                        !- August Deep Ground Temperature {C}
  12.691325136612,                        !- September Deep Ground Temperature {C}
  12.691325136612,                        !- October Deep Ground Temperature {C}
  12.691325136612,                        !- November Deep Ground Temperature {C}
  12.691325136612;                        !- December Deep Ground Temperature {C}

OS:ThermalZone,
  {52b88e1c-9b93-4624-a52b-8f59edeeb972}, !- Handle
  living zone,                            !- Name
  ,                                       !- Multiplier
  ,                                       !- Ceiling Height {m}
  ,                                       !- Volume {m3}
  ,                                       !- Floor Area {m2}
  ,                                       !- Zone Inside Convection Algorithm
  ,                                       !- Zone Outside Convection Algorithm
  ,                                       !- Zone Conditioning Equipment List Name
  {0fa8c20f-1bb8-485f-9e02-e9ef8ca4e9c4}, !- Zone Air Inlet Port List
  {abf8f9c6-eb87-4c3d-878c-c138461468b7}, !- Zone Air Exhaust Port List
  {31678daf-7776-4e88-acb8-3822133c0db5}, !- Zone Air Node Name
  {353b598c-ddad-43d1-bde9-6aace8452be6}, !- Zone Return Air Port List
  ,                                       !- Primary Daylighting Control Name
  ,                                       !- Fraction of Zone Controlled by Primary Daylighting Control
  ,                                       !- Secondary Daylighting Control Name
  ,                                       !- Fraction of Zone Controlled by Secondary Daylighting Control
  ,                                       !- Illuminance Map Name
  ,                                       !- Group Rendering Name
  {e1454b11-3bd5-48ca-8c97-e09fd142b3cd}, !- Thermostat Name
  No;                                     !- Use Ideal Air Loads

OS:Node,
  {9d17c22a-7281-4fa7-a95f-3131b3d424c5}, !- Handle
  Node 1,                                 !- Name
  {31678daf-7776-4e88-acb8-3822133c0db5}, !- Inlet Port
  ;                                       !- Outlet Port

OS:Connection,
  {31678daf-7776-4e88-acb8-3822133c0db5}, !- Handle
  {a6779f45-92fb-4c46-956d-5deddc863a0e}, !- Name
  {52b88e1c-9b93-4624-a52b-8f59edeeb972}, !- Source Object
  11,                                     !- Outlet Port
  {9d17c22a-7281-4fa7-a95f-3131b3d424c5}, !- Target Object
  2;                                      !- Inlet Port

OS:PortList,
  {0fa8c20f-1bb8-485f-9e02-e9ef8ca4e9c4}, !- Handle
  {29e87554-7af4-46ef-bd98-e4cacf4aa035}, !- Name
  {52b88e1c-9b93-4624-a52b-8f59edeeb972}, !- HVAC Component
  {8de6fd1a-247a-4164-9a3f-04ceda2aa5ec}; !- Port 1

OS:PortList,
  {abf8f9c6-eb87-4c3d-878c-c138461468b7}, !- Handle
  {f4838806-7364-4d5c-8e20-5135628f7ad2}, !- Name
  {52b88e1c-9b93-4624-a52b-8f59edeeb972}; !- HVAC Component

OS:PortList,
  {353b598c-ddad-43d1-bde9-6aace8452be6}, !- Handle
  {7152d5a1-0712-48da-b8e6-2e5ef049efa2}, !- Name
  {52b88e1c-9b93-4624-a52b-8f59edeeb972}, !- HVAC Component
  {3fb9093b-67f6-4a36-b0d7-bd496b6b15e0}; !- Port 1

OS:Sizing:Zone,
  {3d2e991c-8ce1-48ec-9582-f19b90b4a49d}, !- Handle
  {52b88e1c-9b93-4624-a52b-8f59edeeb972}, !- Zone or ZoneList Name
  SupplyAirTemperature,                   !- Zone Cooling Design Supply Air Temperature Input Method
  14,                                     !- Zone Cooling Design Supply Air Temperature {C}
  11.11,                                  !- Zone Cooling Design Supply Air Temperature Difference {deltaC}
  SupplyAirTemperature,                   !- Zone Heating Design Supply Air Temperature Input Method
  40,                                     !- Zone Heating Design Supply Air Temperature {C}
  11.11,                                  !- Zone Heating Design Supply Air Temperature Difference {deltaC}
  0.0085,                                 !- Zone Cooling Design Supply Air Humidity Ratio {kg-H2O/kg-air}
  0.008,                                  !- Zone Heating Design Supply Air Humidity Ratio {kg-H2O/kg-air}
  ,                                       !- Zone Heating Sizing Factor
  ,                                       !- Zone Cooling Sizing Factor
  DesignDay,                              !- Cooling Design Air Flow Method
  ,                                       !- Cooling Design Air Flow Rate {m3/s}
  ,                                       !- Cooling Minimum Air Flow per Zone Floor Area {m3/s-m2}
  ,                                       !- Cooling Minimum Air Flow {m3/s}
  ,                                       !- Cooling Minimum Air Flow Fraction
  DesignDay,                              !- Heating Design Air Flow Method
  ,                                       !- Heating Design Air Flow Rate {m3/s}
  ,                                       !- Heating Maximum Air Flow per Zone Floor Area {m3/s-m2}
  ,                                       !- Heating Maximum Air Flow {m3/s}
  ,                                       !- Heating Maximum Air Flow Fraction
  ,                                       !- Design Zone Air Distribution Effectiveness in Cooling Mode
  ,                                       !- Design Zone Air Distribution Effectiveness in Heating Mode
  No,                                     !- Account for Dedicated Outdoor Air System
  NeutralSupplyAir,                       !- Dedicated Outdoor Air System Control Strategy
  autosize,                               !- Dedicated Outdoor Air Low Setpoint Temperature for Design {C}
  autosize;                               !- Dedicated Outdoor Air High Setpoint Temperature for Design {C}

OS:ZoneHVAC:EquipmentList,
  {63948eda-eba7-4067-84dc-43985f0f512c}, !- Handle
  Zone HVAC Equipment List 1,             !- Name
  {52b88e1c-9b93-4624-a52b-8f59edeeb972}, !- Thermal Zone
  ,                                       !- Load Distribution Scheme
  {5d41f87e-4bf9-4ed7-a063-0b96a18dd147}, !- Zone Equipment 1
  1,                                      !- Zone Equipment Cooling Sequence 1
  1;                                      !- Zone Equipment Heating or No-Load Sequence 1

OS:Space,
  {5944564a-6f07-47f7-9406-5208ecd1e496}, !- Handle
  living space,                           !- Name
  {b17a7b6d-e82a-4b10-a50c-d31d087ecc2a}, !- Space Type Name
  ,                                       !- Default Construction Set Name
  ,                                       !- Default Schedule Set Name
  -0,                                     !- Direction of Relative North {deg}
  0,                                      !- X Origin {m}
  0,                                      !- Y Origin {m}
  0,                                      !- Z Origin {m}
  ,                                       !- Building Story Name
  {52b88e1c-9b93-4624-a52b-8f59edeeb972}, !- Thermal Zone Name
  ,                                       !- Part of Total Floor Area
  ,                                       !- Design Specification Outdoor Air Object Name
  {f7485c75-db91-4791-a640-7d767081ab2d}; !- Building Unit Name

OS:Surface,
  {4237787a-e553-47c6-a951-33bcb08dc44e}, !- Handle
  Surface 1,                              !- Name
  Floor,                                  !- Surface Type
  {057715a2-1e26-46d5-bf84-7dc6299ac371}, !- Construction Name
  {5944564a-6f07-47f7-9406-5208ecd1e496}, !- Space Name
  Foundation,                             !- Outside Boundary Condition
  {60fb2ae1-1cce-49a1-8f18-ece7c49c3bcd}, !- Outside Boundary Condition Object
  NoSun,                                  !- Sun Exposure
  NoWind,                                 !- Wind Exposure
  ,                                       !- View Factor to Ground
  ,                                       !- Number of Vertices
  0, 0, 0,                                !- X,Y,Z Vertex 1 {m}
  0, 1.524, 0,                            !- X,Y,Z Vertex 2 {m}
  3.048, 1.524, 0,                        !- X,Y,Z Vertex 3 {m}
  3.048, 0, 0;                            !- X,Y,Z Vertex 4 {m}

OS:Surface,
  {cd3f9266-a6ba-45e4-813f-4ebae5fd940f}, !- Handle
  Surface 2,                              !- Name
  Wall,                                   !- Surface Type
  {f3546c9a-2f13-48be-9d49-996a5e4871be}, !- Construction Name
  {5944564a-6f07-47f7-9406-5208ecd1e496}, !- Space Name
  Outdoors,                               !- Outside Boundary Condition
  ,                                       !- Outside Boundary Condition Object
  SunExposed,                             !- Sun Exposure
  WindExposed,                            !- Wind Exposure
  ,                                       !- View Factor to Ground
  ,                                       !- Number of Vertices
  0, 1.524, 2.4384,                       !- X,Y,Z Vertex 1 {m}
  0, 1.524, 0,                            !- X,Y,Z Vertex 2 {m}
  0, 0, 0,                                !- X,Y,Z Vertex 3 {m}
  0, 0, 2.4384;                           !- X,Y,Z Vertex 4 {m}

OS:Surface,
  {95296845-9830-479c-81ac-9fddceec6d84}, !- Handle
  Surface 3,                              !- Name
  Wall,                                   !- Surface Type
  {f3546c9a-2f13-48be-9d49-996a5e4871be}, !- Construction Name
  {5944564a-6f07-47f7-9406-5208ecd1e496}, !- Space Name
  Outdoors,                               !- Outside Boundary Condition
  ,                                       !- Outside Boundary Condition Object
  SunExposed,                             !- Sun Exposure
  WindExposed,                            !- Wind Exposure
  ,                                       !- View Factor to Ground
  ,                                       !- Number of Vertices
  3.048, 1.524, 2.4384,                   !- X,Y,Z Vertex 1 {m}
  3.048, 1.524, 0,                        !- X,Y,Z Vertex 2 {m}
  0, 1.524, 0,                            !- X,Y,Z Vertex 3 {m}
  0, 1.524, 2.4384;                       !- X,Y,Z Vertex 4 {m}

OS:Surface,
  {3fb89f3c-b3e7-49b0-a6c8-952a6d605653}, !- Handle
  Surface 4,                              !- Name
  Wall,                                   !- Surface Type
  {f3546c9a-2f13-48be-9d49-996a5e4871be}, !- Construction Name
  {5944564a-6f07-47f7-9406-5208ecd1e496}, !- Space Name
  Outdoors,                               !- Outside Boundary Condition
  ,                                       !- Outside Boundary Condition Object
  SunExposed,                             !- Sun Exposure
  WindExposed,                            !- Wind Exposure
  ,                                       !- View Factor to Ground
  ,                                       !- Number of Vertices
  3.048, 0, 2.4384,                       !- X,Y,Z Vertex 1 {m}
  3.048, 0, 0,                            !- X,Y,Z Vertex 2 {m}
  3.048, 1.524, 0,                        !- X,Y,Z Vertex 3 {m}
  3.048, 1.524, 2.4384;                   !- X,Y,Z Vertex 4 {m}

OS:Surface,
  {24517f89-a0a8-4fbf-851e-05740522e584}, !- Handle
  Surface 5,                              !- Name
  Wall,                                   !- Surface Type
  {f3546c9a-2f13-48be-9d49-996a5e4871be}, !- Construction Name
  {5944564a-6f07-47f7-9406-5208ecd1e496}, !- Space Name
  Outdoors,                               !- Outside Boundary Condition
  ,                                       !- Outside Boundary Condition Object
  SunExposed,                             !- Sun Exposure
  WindExposed,                            !- Wind Exposure
  ,                                       !- View Factor to Ground
  ,                                       !- Number of Vertices
  3.048, 0, 0,                            !- X,Y,Z Vertex 1 {m}
  3.048, 0, 2.4384,                       !- X,Y,Z Vertex 2 {m}
  1.04865714285714, 0, 2.4384,            !- X,Y,Z Vertex 3 {m}
  1.04865714285714, 0, 0;                 !- X,Y,Z Vertex 4 {m}

OS:Surface,
  {390b8aa3-313d-4959-920c-e8f26992d80f}, !- Handle
  Surface 6,                              !- Name
  RoofCeiling,                            !- Surface Type
  {f8e5491f-17ea-4ca0-ab3a-87bcaa27c594}, !- Construction Name
  {5944564a-6f07-47f7-9406-5208ecd1e496}, !- Space Name
  Surface,                                !- Outside Boundary Condition
  {0ef9e54d-d456-4f63-9755-d19ac40aca38}, !- Outside Boundary Condition Object
  NoSun,                                  !- Sun Exposure
  NoWind,                                 !- Wind Exposure
  ,                                       !- View Factor to Ground
  ,                                       !- Number of Vertices
  3.048, 0, 2.4384,                       !- X,Y,Z Vertex 1 {m}
  3.048, 1.524, 2.4384,                   !- X,Y,Z Vertex 2 {m}
  0, 1.524, 2.4384,                       !- X,Y,Z Vertex 3 {m}
  0, 0, 2.4384;                           !- X,Y,Z Vertex 4 {m}

OS:SpaceType,
  {b17a7b6d-e82a-4b10-a50c-d31d087ecc2a}, !- Handle
  Space Type 1,                           !- Name
  ,                                       !- Default Construction Set Name
  ,                                       !- Default Schedule Set Name
  ,                                       !- Group Rendering Name
  ,                                       !- Design Specification Outdoor Air Object Name
  ,                                       !- Standards Template
  ,                                       !- Standards Building Type
  living;                                 !- Standards Space Type

OS:Space,
  {ffa766c1-8fb6-4ee6-8f33-97cbbbb5a848}, !- Handle
  living space|story 2,                   !- Name
  {b17a7b6d-e82a-4b10-a50c-d31d087ecc2a}, !- Space Type Name
  ,                                       !- Default Construction Set Name
  ,                                       !- Default Schedule Set Name
  -0,                                     !- Direction of Relative North {deg}
  0,                                      !- X Origin {m}
  0,                                      !- Y Origin {m}
  2.4384,                                 !- Z Origin {m}
  ,                                       !- Building Story Name
  {52b88e1c-9b93-4624-a52b-8f59edeeb972}, !- Thermal Zone Name
  ,                                       !- Part of Total Floor Area
  ,                                       !- Design Specification Outdoor Air Object Name
  {f7485c75-db91-4791-a640-7d767081ab2d}; !- Building Unit Name

OS:Surface,
  {0ef9e54d-d456-4f63-9755-d19ac40aca38}, !- Handle
  Surface 7,                              !- Name
  Floor,                                  !- Surface Type