!- NOTE: Auto-generated from /test/osw_files/SFD_Successful_EnergyPlus_Run_TMY_Appl_PV.osw

OS:Version,
  {dad030be-5004-4bec-8f84-e0093b531363}, !- Handle
  2.7.0;                                  !- Version Identifier

OS:Building,
  {5ea92a4c-0e7d-42ae-a7b5-a05f3693b861}, !- Handle
  Building 1,                             !- Name
  ,                                       !- Building Sector Type
  22.5,                                   !- North Axis {deg}
  ,                                       !- Nominal Floor to Floor Height {m}
  ,                                       !- Space Type Name
  ,                                       !- Default Construction Set Name
  ,                                       !- Default Schedule Set Name
  2,                                      !- Standards Number of Stories
  2,                                      !- Standards Number of Above Ground Stories
  ,                                       !- Standards Template
  singlefamilydetached,                   !- Standards Building Type
  1;                                      !- Standards Number of Living Units

OS:Facility,
  {a9b1101e-22d3-472b-8ff8-97698ff7bdbd}; !- Handle

OS:Site,
  {f3b8426a-cfd1-4f9b-a2d4-75d8c4e9647b}, !- Handle
  Denver Intl Ap_CO_USA,                  !- Name
  39.83,                                  !- Latitude {deg}
  -104.65,                                !- Longitude {deg}
  -7,                                     !- Time Zone {hr}
  1650,                                   !- Elevation {m}
  Suburbs;                                !- Terrain

OS:SimulationControl,
  {40e94cc2-03a6-40ab-8488-be89f2919251}, !- Handle
  ,                                       !- Do Zone Sizing Calculation
  ,                                       !- Do System Sizing Calculation
  ,                                       !- Do Plant Sizing Calculation
  No;                                     !- Run Simulation for Sizing Periods

OS:Sizing:Parameters,
  {c9e6a488-274f-49af-b2c8-872433ee6b77}, !- Handle
  1.25,                                   !- Heating Sizing Factor
  1.15;                                   !- Cooling Sizing Factor

OS:Timestep,
  {847c1167-9266-4b72-8863-a3d2354057a3}, !- Handle
  6;                                      !- Number of Timesteps per Hour

OS:ShadowCalculation,
  {27f59e5b-aa1a-492a-8caa-0f29458c0659}, !- Handle
  20,                                     !- Calculation Frequency
  200;                                    !- Maximum Figures in Shadow Overlap Calculations

OS:HeatBalanceAlgorithm,
  {7ba735da-eda0-4955-8066-842f06a37cc2}, !- Handle
  ConductionTransferFunction,             !- Algorithm
  200;                                    !- Surface Temperature Upper Limit {C}

OS:RunPeriod,
  {eb76961c-892a-472b-9bb1-f29c5eca9f28}, !- Handle
  Run Period 1,                           !- Name
  1,                                      !- Begin Month
  1,                                      !- Begin Day of Month
  12,                                     !- End Month
  31,                                     !- End Day of Month
  ,                                       !- Use Weather File Holidays and Special Days
  ,                                       !- Use Weather File Daylight Saving Period
  ,                                       !- Apply Weekend Holiday Rule
  ,                                       !- Use Weather File Rain Indicators
  ,                                       !- Use Weather File Snow Indicators
  ;                                       !- Number of Times Runperiod to be Repeated

OS:LifeCycleCost:Parameters,
  {1df6c2fe-95db-465a-a3cd-ed0235ff5248}, !- Handle
  ,                                       !- Analysis Type
  ,                                       !- Discounting Convention
  ,                                       !- Inflation Approach
  ,                                       !- Real Discount Rate
  ,                                       !- Nominal Discount Rate
  ,                                       !- Inflation
  ,                                       !- Base Date Month
  ,                                       !- Base Date Year
  ,                                       !- Service Date Month
  ,                                       !- Service Date Year
  ;                                       !- Length of Study Period in Years

OS:SurfaceConvectionAlgorithm:Outside,
  {ed5d7127-e38e-4659-893c-81c0f40d3d1f}, !- Handle
  DOE-2;                                  !- Algorithm

OS:SurfaceConvectionAlgorithm:Inside,
  {eaf7e718-4f1d-4437-9024-e13e17af9d27}, !- Handle
  TARP;                                   !- Algorithm

OS:ZoneCapacitanceMultiplier:ResearchSpecial,
  {4c2be518-3fb8-4c9b-9091-5e0c8968a253}, !- Handle
  ,                                       !- Temperature Capacity Multiplier
  15,                                     !- Humidity Capacity Multiplier
  ;                                       !- Carbon Dioxide Capacity Multiplier

OS:WeatherFile,
  {ce3ff640-9fe7-43de-82ee-7bf660d00038}, !- Handle
  Denver Intl Ap,                         !- City
  CO,                                     !- State Province Region
  USA,                                    !- Country
  TMY3,                                   !- Data Source
  725650,                                 !- WMO Number
  39.83,                                  !- Latitude {deg}
  -104.65,                                !- Longitude {deg}
  -7,                                     !- Time Zone {hr}
  1650,                                   !- Elevation {m}
  file:../tests/USA_CO_Denver_Intl_AP_725650_TMY3.epw, !- Url
  E23378AA;                               !- Checksum

OS:AdditionalProperties,
  {66f1298f-ec3e-4b98-9e52-d2ebefef8796}, !- Handle
  {ce3ff640-9fe7-43de-82ee-7bf660d00038}, !- Object Name
  EPWHeaderCity,                          !- Feature Name 1
  String,                                 !- Feature Data Type 1
  Denver Intl Ap,                         !- Feature Value 1
  EPWHeaderState,                         !- Feature Name 2
  String,                                 !- Feature Data Type 2
  CO,                                     !- Feature Value 2
  EPWHeaderCountry,                       !- Feature Name 3
  String,                                 !- Feature Data Type 3
  USA,                                    !- Feature Value 3
  EPWHeaderDataSource,                    !- Feature Name 4
  String,                                 !- Feature Data Type 4
  TMY3,                                   !- Feature Value 4
  EPWHeaderStation,                       !- Feature Name 5
  String,                                 !- Feature Data Type 5
  725650,                                 !- Feature Value 5
  EPWHeaderLatitude,                      !- Feature Name 6
  Double,                                 !- Feature Data Type 6
  39.829999999999998,                     !- Feature Value 6
  EPWHeaderLongitude,                     !- Feature Name 7
  Double,                                 !- Feature Data Type 7
  -104.65000000000001,                    !- Feature Value 7
  EPWHeaderTimezone,                      !- Feature Name 8
  Double,                                 !- Feature Data Type 8
  -7,                                     !- Feature Value 8
  EPWHeaderAltitude,                      !- Feature Name 9
  Double,                                 !- Feature Data Type 9
  5413.3858267716532,                     !- Feature Value 9
  EPWHeaderLocalPressure,                 !- Feature Name 10
  Double,                                 !- Feature Data Type 10
  0.81937567683596546,                    !- Feature Value 10
  EPWHeaderRecordsPerHour,                !- Feature Name 11
  Double,                                 !- Feature Data Type 11
  1,                                      !- Feature Value 11
  EPWDataAnnualAvgDrybulb,                !- Feature Name 12
  Double,                                 !- Feature Data Type 12
  51.575616438356228,                     !- Feature Value 12
  EPWDataAnnualMinDrybulb,                !- Feature Name 13
  Double,                                 !- Feature Data Type 13
  -2.9200000000000017,                    !- Feature Value 13
  EPWDataAnnualMaxDrybulb,                !- Feature Name 14
  Double,                                 !- Feature Data Type 14
  104,                                    !- Feature Value 14
  EPWDataCDD50F,                          !- Feature Name 15
  Double,                                 !- Feature Data Type 15
  3072.2925000000005,                     !- Feature Value 15
  EPWDataCDD65F,                          !- Feature Name 16
  Double,                                 !- Feature Data Type 16
  883.62000000000035,                     !- Feature Value 16
  EPWDataHDD50F,                          !- Feature Name 17
  Double,                                 !- Feature Data Type 17
  2497.1925000000001,                     !- Feature Value 17
  EPWDataHDD65F,                          !- Feature Name 18
  Double,                                 !- Feature Data Type 18
  5783.5200000000013,                     !- Feature Value 18
  EPWDataAnnualAvgWindspeed,              !- Feature Name 19
  Double,                                 !- Feature Data Type 19
  3.9165296803649667,                     !- Feature Value 19
  EPWDataMonthlyAvgDrybulbs,              !- Feature Name 20
  String,                                 !- Feature Data Type 20
  33.4191935483871&#4431.90142857142857&#4443.02620967741937&#4442.48624999999999&#4459.877741935483854&#4473.57574999999997&#4472.07975806451608&#4472.70008064516134&#4466.49200000000006&#4450.079112903225806&#4437.218250000000005&#4434.582177419354835, !- Feature Value 20
  EPWDataGroundMonthlyTemps,              !- Feature Name 21
  String,                                 !- Feature Data Type 21
  44.08306285945173&#4440.89570904991865&#4440.64045432632048&#4442.153016571250646&#4448.225111118704206&#4454.268919273837525&#4459.508577937551024&#4462.82777283423508&#4463.10975667174995&#4460.41014950381947&#4455.304105212311526&#4449.445696474514364, !- Feature Value 21
  EPWDataWSF,                             !- Feature Name 22
  Double,                                 !- Feature Data Type 22
  0.58999999999999997,                    !- Feature Value 22
  EPWDataMonthlyAvgDailyHighDrybulbs,     !- Feature Name 23
  String,                                 !- Feature Data Type 23
  47.41032258064516&#4446.58642857142857&#4455.15032258064517&#4453.708&#4472.80193548387098&#4488.67600000000002&#4486.1858064516129&#4485.87225806451613&#4482.082&#4463.18064516129033&#4448.73400000000001&#4448.87935483870968, !- Feature Value 23
  EPWDataMonthlyAvgDailyLowDrybulbs,      !- Feature Name 24
  String,                                 !- Feature Data Type 24
  19.347741935483874&#4419.856428571428573&#4430.316129032258065&#4431.112&#4447.41612903225806&#4457.901999999999994&#4459.063870967741934&#4460.956774193548384&#4452.352000000000004&#4438.41612903225806&#4427.002000000000002&#4423.02903225806451, !- Feature Value 24
  EPWDesignHeatingDrybulb,                !- Feature Name 25
  Double,                                 !- Feature Data Type 25
  6.8000000000000007,                     !- Feature Value 25
  EPWDesignHeatingWindspeed,              !- Feature Name 26
  Double,                                 !- Feature Data Type 26
  12,                                     !- Feature Value 26
  EPWDesignCoolingDrybulb,                !- Feature Name 27
  Double,                                 !- Feature Data Type 27
  91.760000000000005,                     !- Feature Value 27
  EPWDesignCoolingWetbulb,                !- Feature Name 28
  Double,                                 !- Feature Data Type 28
  60.079999999999998,                     !- Feature Value 28
  EPWDesignCoolingHumidityRatio,          !- Feature Name 29
  Double,                                 !- Feature Data Type 29
  0.006050392196571398,                   !- Feature Value 29
  EPWDesignCoolingWindspeed,              !- Feature Name 30
  Double,                                 !- Feature Data Type 30
  4.2000000000000002,                     !- Feature Value 30
  EPWDesignDailyTemperatureRange,         !- Feature Name 31
  Double,                                 !- Feature Data Type 31
  27.359999999999999,                     !- Feature Value 31
  EPWDesignDehumidDrybulb,                !- Feature Name 32
  Double,                                 !- Feature Data Type 32
  67.280000000000001,                     !- Feature Value 32
  EPWDesignDehumidHumidityRatio,          !- Feature Name 33
  Double,                                 !- Feature Data Type 33
  0.012295426899271008,                   !- Feature Value 33
  EPWDesignCoolingDirectNormal,           !- Feature Name 34
  Double,                                 !- Feature Data Type 34
  985,                                    !- Feature Value 34
  EPWDesignCoolingDiffuseHorizontal,      !- Feature Name 35
  Double,                                 !- Feature Data Type 35
  84;                                     !- Feature Value 35

OS:YearDescription,
  {f91f0662-73c1-4ab4-acfa-87d5be07b78c}, !- Handle
  ,                                       !- Calendar Year
  Monday;                                 !- Day of Week for Start Day

OS:ClimateZones,
  {f65a9043-d943-4b2d-8d04-ea3dc63f0fc0}, !- Handle
  ,                                       !- Active Institution
  ,                                       !- Active Year
  ,                                       !- Climate Zone Institution Name 1
  ,                                       !- Climate Zone Document Name 1
  ,                                       !- Climate Zone Document Year 1
  ,                                       !- Climate Zone Value 1
  Building America,                       !- Climate Zone Institution Name 2
  ,                                       !- Climate Zone Document Name 2
  0,                                      !- Climate Zone Document Year 2
  Cold;                                   !- Climate Zone Value 2

OS:Site:WaterMainsTemperature,
  {f7d42793-0e6a-4414-930e-a91d0c434f15}, !- Handle
  Correlation,                            !- Calculation Method
  ,                                       !- Temperature Schedule Name
  10.8753424657535,                       !- Annual Average Outdoor Air Temperature {C}
  23.1524007936508;                       !- Maximum Difference In Monthly Average Outdoor Air Temperatures {deltaC}

OS:RunPeriodControl:DaylightSavingTime,
  {af46904e-ee26-473f-86de-5dc5e71dae56}, !- Handle
  4/7,                                    !- Start Date
  10/26;                                  !- End Date

OS:Site:GroundTemperature:Deep,
  {79ddbcd9-6ae2-444f-970f-5e0f8ec69773}, !- Handle
  10.8753424657535,                       !- January Deep Ground Temperature {C}
  10.8753424657535,                       !- February Deep Ground Temperature {C}
  10.8753424657535,                       !- March Deep Ground Temperature {C}
  10.8753424657535,                       !- April Deep Ground Temperature {C}
  10.8753424657535,                       !- May Deep Ground Temperature {C}
  10.8753424657535,                       !- June Deep Ground Temperature {C}
  10.8753424657535,                       !- July Deep Ground Temperature {C}
  10.8753424657535,                       !- August Deep Ground Temperature {C}
  10.8753424657535,                       !- September Deep Ground Temperature {C}
  10.8753424657535,                       !- October Deep Ground Temperature {C}
  10.8753424657535,                       !- November Deep Ground Temperature {C}
  10.8753424657535;                       !- December Deep Ground Temperature {C}

OS:ThermalZone,
  {4f7a6c7c-a722-40d5-9c48-131834df0e93}, !- Handle
  living zone,                            !- Name
  ,                                       !- Multiplier
  ,                                       !- Ceiling Height {m}
  ,                                       !- Volume {m3}
  ,                                       !- Floor Area {m2}
  ,                                       !- Zone Inside Convection Algorithm
  ,                                       !- Zone Outside Convection Algorithm
  ,                                       !- Zone Conditioning Equipment List Name
  {30bd33c3-ce23-4c8e-a8ce-bcf944749f50}, !- Zone Air Inlet Port List
  {3f9d3e39-5662-48f8-ba08-ffa1f45c6f21}, !- Zone Air Exhaust Port List
  {37031b58-a452-4929-85ba-271604c0a2ce}, !- Zone Air Node Name
  {2068f0ca-57f1-41f0-9a15-3dc9c07a3f3c}, !- Zone Return Air Port List
  ,                                       !- Primary Daylighting Control Name
  ,                                       !- Fraction of Zone Controlled by Primary Daylighting Control
  ,                                       !- Secondary Daylighting Control Name
  ,                                       !- Fraction of Zone Controlled by Secondary Daylighting Control
  ,                                       !- Illuminance Map Name
  ,                                       !- Group Rendering Name
  ,                                       !- Thermostat Name
  No;                                     !- Use Ideal Air Loads

OS:Node,
  {1970f2eb-aa6f-4a3d-9108-b22b1289db84}, !- Handle
  Node 1,                                 !- Name
  {37031b58-a452-4929-85ba-271604c0a2ce}, !- Inlet Port
  ;                                       !- Outlet Port

OS:Connection,
  {37031b58-a452-4929-85ba-271604c0a2ce}, !- Handle
  {e3421540-b6bd-4438-9e11-1001e332fe3c}, !- Name
  {4f7a6c7c-a722-40d5-9c48-131834df0e93}, !- Source Object
  11,                                     !- Outlet Port
  {1970f2eb-aa6f-4a3d-9108-b22b1289db84}, !- Target Object
  2;                                      !- Inlet Port

OS:PortList,
  {30bd33c3-ce23-4c8e-a8ce-bcf944749f50}, !- Handle
  {88689f3a-2590-434b-a964-117af341eb6d}, !- Name
  {4f7a6c7c-a722-40d5-9c48-131834df0e93}; !- HVAC Component

OS:PortList,
  {3f9d3e39-5662-48f8-ba08-ffa1f45c6f21}, !- Handle
  {730b2f7e-0962-4ada-9efa-1bd0e35a758c}, !- Name
  {4f7a6c7c-a722-40d5-9c48-131834df0e93}; !- HVAC Component

OS:PortList,
  {2068f0ca-57f1-41f0-9a15-3dc9c07a3f3c}, !- Handle
  {9da56914-6ca3-498d-a5c9-cb2044af86ee}, !- Name
  {4f7a6c7c-a722-40d5-9c48-131834df0e93}; !- HVAC Component

OS:Sizing:Zone,
  {aec5e457-97e3-4669-bead-a3d901c77af8}, !- Handle
  {4f7a6c7c-a722-40d5-9c48-131834df0e93}, !- Zone or ZoneList Name
  SupplyAirTemperature,                   !- Zone Cooling Design Supply Air Temperature Input Method
  14,                                     !- Zone Cooling Design Supply Air Temperature {C}
  11.11,                                  !- Zone Cooling Design Supply Air Temperature Difference {deltaC}
  SupplyAirTemperature,                   !- Zone Heating Design Supply Air Temperature Input Method
  40,                                     !- Zone Heating Design Supply Air Temperature {C}
  11.11,                                  !- Zone Heating Design Supply Air Temperature Difference {deltaC}
  0.0085,                                 !- Zone Cooling Design Supply Air Humidity Ratio {kg-H2O/kg-air}
  0.008,                                  !- Zone Heating Design Supply Air Humidity Ratio {kg-H2O/kg-air}
  ,                                       !- Zone Heating Sizing Factor
  ,                                       !- Zone Cooling Sizing Factor
  DesignDay,                              !- Cooling Design Air Flow Method
  ,                                       !- Cooling Design Air Flow Rate {m3/s}
  ,                                       !- Cooling Minimum Air Flow per Zone Floor Area {m3/s-m2}
  ,                                       !- Cooling Minimum Air Flow {m3/s}
  ,                                       !- Cooling Minimum Air Flow Fraction
  DesignDay,                              !- Heating Design Air Flow Method
  ,                                       !- Heating Design Air Flow Rate {m3/s}
  ,                                       !- Heating Maximum Air Flow per Zone Floor Area {m3/s-m2}
  ,                                       !- Heating Maximum Air Flow {m3/s}
  ,                                       !- Heating Maximum Air Flow Fraction
  ,                                       !- Design Zone Air Distribution Effectiveness in Cooling Mode
  ,                                       !- Design Zone Air Distribution Effectiveness in Heating Mode
  No,                                     !- Account for Dedicated Outdoor Air System
  NeutralSupplyAir,                       !- Dedicated Outdoor Air System Control Strategy
  autosize,                               !- Dedicated Outdoor Air Low Setpoint Temperature for Design {C}
  autosize;                               !- Dedicated Outdoor Air High Setpoint Temperature for Design {C}

OS:ZoneHVAC:EquipmentList,
  {0d456fd7-6013-4d97-8d7f-8dd86cd5d4b3}, !- Handle
  Zone HVAC Equipment List 1,             !- Name
  {4f7a6c7c-a722-40d5-9c48-131834df0e93}; !- Thermal Zone

OS:Space,
  {f2e6899e-6c69-414d-83c0-42fca64c1ab0}, !- Handle
  living space,                           !- Name
  {6a4bb435-8b5d-45b7-9dcb-d72472dff932}, !- Space Type Name
  ,                                       !- Default Construction Set Name
  ,                                       !- Default Schedule Set Name
  -0,                                     !- Direction of Relative North {deg}
  0,                                      !- X Origin {m}
  0,                                      !- Y Origin {m}
  0,                                      !- Z Origin {m}
  ,                                       !- Building Story Name
  {4f7a6c7c-a722-40d5-9c48-131834df0e93}, !- Thermal Zone Name
  ,                                       !- Part of Total Floor Area
  ,                                       !- Design Specification Outdoor Air Object Name
  {9dd923e7-984a-492f-9022-7e2672c28ede}; !- Building Unit Name

OS:Surface,
  {d4623bca-36c0-4e49-8cf0-754f6197dd09}, !- Handle
  Surface 1,                              !- Name
  Floor,                                  !- Surface Type
  {8d278272-ef05-4be4-a874-c747d405e6f1}, !- Construction Name
  {f2e6899e-6c69-414d-83c0-42fca64c1ab0}, !- Space Name
  Foundation,                             !- Outside Boundary Condition
  {ba1ae6ea-04a9-4fad-9531-43c406ac61a4}, !- Outside Boundary Condition Object
  NoSun,                                  !- Sun Exposure
  NoWind,                                 !- Wind Exposure
  ,                                       !- View Factor to Ground
  ,                                       !- Number of Vertices
  0, 0, 0,                                !- X,Y,Z Vertex 1 {m}
  0, 1.524, 0,                            !- X,Y,Z Vertex 2 {m}
  3.048, 1.524, 0,                        !- X,Y,Z Vertex 3 {m}
  3.048, 0, 0;                            !- X,Y,Z Vertex 4 {m}

OS:Surface,
  {93411415-bfee-4be0-aa9f-9257d3bb5e4f}, !- Handle
  Surface 2,                              !- Name
  Wall,                                   !- Surface Type
  {ab6adafd-5ad8-46fe-a0e1-4184beccbe8a}, !- Construction Name
  {f2e6899e-6c69-414d-83c0-42fca64c1ab0}, !- Space Name
  Outdoors,                               !- Outside Boundary Condition
  ,                                       !- Outside Boundary Condition Object
  SunExposed,                             !- Sun Exposure
  WindExposed,                            !- Wind Exposure
  ,                                       !- View Factor to Ground
  ,                                       !- Number of Vertices
  0, 1.524, 2.4384,                       !- X,Y,Z Vertex 1 {m}
  0, 1.524, 0,                            !- X,Y,Z Vertex 2 {m}
  0, 0, 0,                                !- X,Y,Z Vertex 3 {m}
  0, 0, 2.4384;                           !- X,Y,Z Vertex 4 {m}

OS:Surface,
  {75e19370-a4d6-4e32-9ebe-8225dd22dda0}, !- Handle
  Surface 3,                              !- Name
  Wall,                                   !- Surface Type
  {ab6adafd-5ad8-46fe-a0e1-4184beccbe8a}, !- Construction Name
  {f2e6899e-6c69-414d-83c0-42fca64c1ab0}, !- Space Name
  Outdoors,                               !- Outside Boundary Condition
  ,                                       !- Outside Boundary Condition Object
  SunExposed,                             !- Sun Exposure
  WindExposed,                            !- Wind Exposure
  ,                                       !- View Factor to Ground
  ,                                       !- Number of Vertices
  3.048, 1.524, 2.4384,                   !- X,Y,Z Vertex 1 {m}
  3.048, 1.524, 0,                        !- X,Y,Z Vertex 2 {m}
  0, 1.524, 0,                            !- X,Y,Z Vertex 3 {m}
  0, 1.524, 2.4384;                       !- X,Y,Z Vertex 4 {m}

OS:Surface,
  {3d0c4cb0-4327-41f7-a467-57c843e92691}, !- Handle
  Surface 4,                              !- Name
  Wall,                                   !- Surface Type
  {ab6adafd-5ad8-46fe-a0e1-4184beccbe8a}, !- Construction Name
  {f2e6899e-6c69-414d-83c0-42fca64c1ab0}, !- Space Name
  Outdoors,                               !- Outside Boundary Condition
  ,                                       !- Outside Boundary Condition Object
  SunExposed,                             !- Sun Exposure
  WindExposed,                            !- Wind Exposure
  ,                                       !- View Factor to Ground
  ,                                       !- Number of Vertices
  3.048, 0, 2.4384,                       !- X,Y,Z Vertex 1 {m}
  3.048, 0, 0,                            !- X,Y,Z Vertex 2 {m}
  3.048, 1.524, 0,                        !- X,Y,Z Vertex 3 {m}
  3.048, 1.524, 2.4384;                   !- X,Y,Z Vertex 4 {m}

OS:Surface,
  {050fd0f9-c221-4304-9d33-c36f99934c40}, !- Handle
  Surface 5,                              !- Name
  Wall,                                   !- Surface Type
  {ab6adafd-5ad8-46fe-a0e1-4184beccbe8a}, !- Construction Name
  {f2e6899e-6c69-414d-83c0-42fca64c1ab0}, !- Space Name
  Outdoors,                               !- Outside Boundary Condition
  ,                                       !- Outside Boundary Condition Object
  SunExposed,                             !- Sun Exposure
  WindExposed,                            !- Wind Exposure
  ,                                       !- View Factor to Ground
  ,                                       !- Number of Vertices
  3.048, 0, 0,                            !- X,Y,Z Vertex 1 {m}
  3.048, 0, 2.4384,                       !- X,Y,Z Vertex 2 {m}
  1.04865714285714, 0, 2.4384,            !- X,Y,Z Vertex 3 {m}
  1.04865714285714, 0, 0;                 !- X,Y,Z Vertex 4 {m}

OS:Surface,
  {7f8ed6c7-e611-449d-bed3-43628252b6aa}, !- Handle
  Surface 6,                              !- Name
  RoofCeiling,                            !- Surface Type
  {a0e90792-e84b-4e0f-a073-4e755696b24f}, !- Construction Name
  {f2e6899e-6c69-414d-83c0-42fca64c1ab0}, !- Space Name
  Surface,                                !- Outside Boundary Condition
  {47371ba8-26db-44ed-8832-7d2141835d21}, !- Outside Boundary Condition Object
  NoSun,                                  !- Sun Exposure
  NoWind,                                 !- Wind Exposure
  ,                                       !- View Factor to Ground
  ,                                       !- Number of Vertices
  3.048, 0, 2.4384,                       !- X,Y,Z Vertex 1 {m}
  3.048, 1.524, 2.4384,                   !- X,Y,Z Vertex 2 {m}
  0, 1.524, 2.4384,                       !- X,Y,Z Vertex 3 {m}
  0, 0, 2.4384;                           !- X,Y,Z Vertex 4 {m}

OS:SpaceType,
  {6a4bb435-8b5d-45b7-9dcb-d72472dff932}, !- Handle
  Space Type 1,                           !- Name
  ,                                       !- Default Construction Set Name
  ,                                       !- Default Schedule Set Name
  ,                                       !- Group Rendering Name
  ,                                       !- Design Specification Outdoor Air Object Name
  ,                                       !- Standards Template
  ,                                       !- Standards Building Type
  living;                                 !- Standards Space Type

OS:Space,
  {80c0a71c-2a65-4680-aa29-6986758185a7}, !- Handle
  living space|story 2,                   !- Name
  {6a4bb435-8b5d-45b7-9dcb-d72472dff932}, !- Space Type Name
  ,                                       !- Default Construction Set Name
  ,                                       !- Default Schedule Set Name
  -0,                                     !- Direction of Relative North {deg}
  0,                                      !- X Origin {m}
  0,                                      !- Y Origin {m}
  2.4384,                                 !- Z Origin {m}
  ,                                       !- Building Story Name
  {4f7a6c7c-a722-40d5-9c48-131834df0e93}, !- Thermal Zone Name
  ,                                       !- Part of Total Floor Area
  ,                                       !- Design Specification Outdoor Air Object Name
  {9dd923e7-984a-492f-9022-7e2672c28ede}; !- Building Unit Name

OS:Surface,
  {47371ba8-26db-44ed-8832-7d2141835d21}, !- Handle
  Surface 7,                              !- Name
  Floor,                                  !- Surface Type
  {ff5171e2-2ebe-4481-baff-9d51b1f3965f}, !- Construction Name
  {80c0a71c-2a65-4680-aa29-6986758185a7}, !- Space Name
  Surface,                                !- Outside Boundary Condition
  {7f8ed6c7-e611-449d-bed3-43628252b6aa}, !- Outside Boundary Condition Object
  NoSun,                                  !- Sun Exposure
  NoWind,                                 !- Wind Exposure